/*---------------------------------------------------------------------------*\
  =========                 |
  \\      /  F ield         | OpenFOAM: The Open Source CFD Toolbox
   \\    /   O peration     | Website:  https://openfoam.org
    \\  /    A nd           | Version:  10
     \\/     M anipulation  |
\*---------------------------------------------------------------------------*/
Build  : 10-c4cf895ad8fa
Exec   : chtMultiRegionFoam
Date   : Nov 01 2023
Time   : 09:05:16
Host   : "alexesn"
PID    : 7434
I/O    : uncollated
Case   : /mnt/c/Users/sasch/OneDrive/Desktop/MEPhI/Project_practice/FOAM_project/heatExchanger/all_auto/case_0_10
nProcs : 1
sigFpe : Enabling floating point exception trapping (FOAM_SIGFPE).
fileModificationChecking : Monitoring run-time modified files using timeStampMaster (fileModificationSkew 10)
allowSystemOperations : Allowing user-supplied system call operations

// * * * * * * * * * * * * * * * * * * * * * * * * * * * * * * * * * * * * * //
Create time

Create fluid mesh for region fluid for time = 0

Create solid mesh for region fins for time = 0

Create solid mesh for region heater for time = 0


PIMPLE: Region fluid
PIMPLE: No convergence criteria found


PIMPLE: Region fins
PIMPLE: No convergence criteria found


PIMPLE: Region heater
PIMPLE: No convergence criteria found


PIMPLE: Operating solver in steady-state mode with 1 outer corrector
PIMPLE: Operating solver in SIMPLE mode


*** Reading fluid mesh thermophysical properties for region fluid

    Adding to thermoFluid

Selecting thermodynamics package 
{
    type            heRhoThermo;
    mixture         pureMixture;
    transport       const;
    thermo          hConst;
    equationOfState rhoConst;
    specie          specie;
    energy          sensibleEnthalpy;
}

    Adding to rhoFluid

    Adding to UFluid

    Adding to phiFluid

    Adding to gFluid

    Adding to hRefFluid

    Adding to pRefFluid

    Adding to ghFluid

    Adding to ghfFluid

    Adding to turbulenceFluid

Selecting turbulence model type laminar
Selecting laminar stress model Stokes
    Adding to thermophysicalTransport

Selecting thermophysical transport type laminar
Selecting default laminar thermophysical transport model unityLewisFourier
    Adding to reactionFluid

Combustion model not active: combustionProperties not found
Selecting combustion model none
    Adding to KFluid

    Adding to dpdtFluid

    Adding to fieldsFluid

    Adding MRF

No MRF models present

    Adding fvModelsFluid

    Adding fvConstraintsFluid

Creating fvConstraints from "system/fvConstraints"

Selecting finite volume constraint type limitTemperature
    Name: limitT
    - selecting all cells
    - selected 10481 cell(s) with volume 0.00149667
*** Reading solid mesh thermophysical properties for region fins

    Adding to thermoSolid

Selecting thermodynamics package 
{
    type            heSolidThermo;
    mixture         pureMixture;
    transport       constIsoSolid;
    thermo          eConst;
    equationOfState rhoConst;
    specie          specie;
    energy          sensibleInternalEnergy;
}

    Adding to fvModelsSolid

    Adding fvConstraintsSolid

*** Reading solid mesh thermophysical properties for region heater

    Adding to thermoSolid

Selecting thermodynamics package 
{
    type            heSolidThermo;
    mixture         pureMixture;
    transport       constIsoSolid;
    thermo          eConst;
    equationOfState rhoConst;
    specie          specie;
    energy          sensibleInternalEnergy;
}

    Adding to fvModelsSolid

Creating fvModels from "constant/fvModels"

Selecting finite volume model type heatSource
    Name: energySource
    - selecting all cells
    - selected 621 cell(s) with volume 1e-06
    Adding fvConstraintsSolid

Region: fluid Courant Number mean: 1322.24 max: 92248.7
Region: fins Diffusion Number mean: 124.24 max: 149517
Region: heater Diffusion Number mean: 71.9582 max: 655.768








surfaceFieldValue averageTempHeaterFinInterface:
    total faces  = 56
    total area   = 0.0001


volFieldValue volAvgFinTemperature write:
    volAverage() of T = 296.9

volFieldValue volAvgHeaterTemperature write:
    volAverage() of T = 296.9

surfaceFieldValue averageTempHeaterFinInterface write:
    areaAverage(heater_to_fins) of T = 296.9

Region: fluid Courant Number mean: 1322.24 max: 92248.7
Region: fins Diffusion Number mean: 124.24 max: 149517
Region: heater Diffusion Number mean: 71.9582 max: 655.768
Time = 1s


Solving for solid region fins
GAMG:  Solving for e, Initial residual = 0.983324, Final residual = 0.0454372, No Iterations 1
Min/max T:296.9 296.9

Solving for solid region heater
GAMG:  Solving for e, Initial residual = 1, Final residual = 0.0583859, No Iterations 3
Min/max T:296.9 314.646

Solving for fluid region fluid
DILUPBiCGStab:  Solving for Ux, Initial residual = 1, Final residual = 0.0243271, No Iterations 1
DILUPBiCGStab:  Solving for Uy, Initial residual = 1, Final residual = 0.0296422, No Iterations 1
DILUPBiCGStab:  Solving for Uz, Initial residual = 1, Final residual = 0.0279842, No Iterations 1
DILUPBiCGStab:  Solving for h, Initial residual = 1, Final residual = 0.0668878, No Iterations 1
Min/max T:295.598 297.758
GAMG:  Solving for p_rgh, Initial residual = 1, Final residual = 0.00718077, No Iterations 7
GAMG:  Solving for p_rgh, Initial residual = 0.375337, Final residual = 0.00243662, No Iterations 2
GAMG:  Solving for p_rgh, Initial residual = 0.0353629, Final residual = 0.000178722, No Iterations 3
time step continuity errors : sum local = 0.00868904, global = -0.000957491, cumulative = -0.000957491
ExecutionTime = 6.43978 s  ClockTime = 12 s

volFieldValue volAvgFinTemperature write:
    volAverage() of T = 296.9

volFieldValue volAvgHeaterTemperature write:
    volAverage() of T = 308.877

surfaceFieldValue averageTempHeaterFinInterface write:
    areaAverage(heater_to_fins) of T = 296.9

Region: fluid Courant Number mean: 1325.16 max: 53204
Region: fins Diffusion Number mean: 124.24 max: 149517
Region: heater Diffusion Number mean: 71.9582 max: 655.768
Time = 2s


Solving for solid region fins
GAMG:  Solving for e, Initial residual = 1, Final residual = 0.028711, No Iterations 1
Min/max T:296.898 299.586

Solving for solid region heater
GAMG:  Solving for e, Initial residual = 0.244238, Final residual = 0.00649796, No Iterations 1
Min/max T:298.692 317.006

Solving for fluid region fluid
DILUPBiCGStab:  Solving for Ux, Initial residual = 0.253019, Final residual = 0.0110925, No Iterations 1
DILUPBiCGStab:  Solving for Uy, Initial residual = 0.344764, Final residual = 0.0146566, No Iterations 1
DILUPBiCGStab:  Solving for Uz, Initial residual = 0.388752, Final residual = 0.0165937, No Iterations 1
DILUPBiCGStab:  Solving for h, Initial residual = 0.260615, Final residual = 0.0212638, No Iterations 1
Min/max T:292.184 299.351
GAMG:  Solving for p_rgh, Initial residual = 0.232433, Final residual = 0.00128047, No Iterations 6
GAMG:  Solving for p_rgh, Initial residual = 0.610733, Final residual = 0.00416495, No Iterations 2
GAMG:  Solving for p_rgh, Initial residual = 0.105694, Final residual = 0.000687578, No Iterations 3
time step continuity errors : sum local = 0.0176341, global = 0.00402208, cumulative = 0.00402208
ExecutionTime = 6.65626 s  ClockTime = 12 s

volFieldValue volAvgFinTemperature write:
    volAverage() of T = 299.21

volFieldValue volAvgHeaterTemperature write:
    volAverage() of T = 311.376

surfaceFieldValue averageTempHeaterFinInterface write:
    areaAverage(heater_to_fins) of T = 299.257

Region: fluid Courant Number mean: 1324.96 max: 51504.7
Region: fins Diffusion Number mean: 124.24 max: 149517
Region: heater Diffusion Number mean: 71.9582 max: 655.768
Time = 3s


Solving for solid region fins
GAMG:  Solving for e, Initial residual = 0.614463, Final residual = 0.0122315, No Iterations 1
Min/max T:299.091 301.917

Solving for solid region heater
GAMG:  Solving for e, Initial residual = 0.0930497, Final residual = 0.00270532, No Iterations 1
Min/max T:300.979 319.6

Solving for fluid region fluid
DILUPBiCGStab:  Solving for Ux, Initial residual = 0.105319, Final residual = 0.0045781, No Iterations 1
DILUPBiCGStab:  Solving for Uy, Initial residual = 0.225426, Final residual = 0.00933972, No Iterations 1
DILUPBiCGStab:  Solving for Uz, Initial residual = 0.317565, Final residual = 0.0134816, No Iterations 1
DILUPBiCGStab:  Solving for h, Initial residual = 0.128903, Final residual = 0.0111098, No Iterations 1
Min/max T:295.643 301.678
GAMG:  Solving for p_rgh, Initial residual = 0.180189, Final residual = 0.00105554, No Iterations 6
GAMG:  Solving for p_rgh, Initial residual = 0.58659, Final residual = 0.00390464, No Iterations 2
GAMG:  Solving for p_rgh, Initial residual = 0.0975837, Final residual = 0.000590162, No Iterations 3
time step continuity errors : sum local = 0.00643186, global = -0.00145194, cumulative = -0.00145194
ExecutionTime = 6.86158 s  ClockTime = 13 s

volFieldValue volAvgFinTemperature write:
    volAverage() of T = 301.503

volFieldValue volAvgHeaterTemperature write:
    volAverage() of T = 313.921

surfaceFieldValue averageTempHeaterFinInterface write:
    areaAverage(heater_to_fins) of T = 301.588

Region: fluid Courant Number mean: 1324.51 max: 50502.5
Region: fins Diffusion Number mean: 124.24 max: 149517
Region: heater Diffusion Number mean: 71.9582 max: 655.768
Time = 4s


Solving for solid region fins
GAMG:  Solving for e, Initial residual = 0.54646, Final residual = 0.0105453, No Iterations 1
Min/max T:301.397 304.266

Solving for solid region heater
GAMG:  Solving for e, Initial residual = 0.080645, Final residual = 0.0015295, No Iterations 1
Min/max T:303.277 322.094

Solving for fluid region fluid
DILUPBiCGStab:  Solving for Ux, Initial residual = 0.0421382, Final residual = 0.00184162, No Iterations 1
DILUPBiCGStab:  Solving for Uy, Initial residual = 0.0714095, Final residual = 0.00301974, No Iterations 1
DILUPBiCGStab:  Solving for Uz, Initial residual = 0.0942372, Final residual = 0.00403005, No Iterations 1
DILUPBiCGStab:  Solving for h, Initial residual = 0.044845, Final residual = 0.00406829, No Iterations 1
Min/max T:296.055 303.998
GAMG:  Solving for p_rgh, Initial residual = 0.143097, Final residual = 0.000852046, No Iterations 6
GAMG:  Solving for p_rgh, Initial residual = 0.353245, Final residual = 0.00233218, No Iterations 2
GAMG:  Solving for p_rgh, Initial residual = 0.0500363, Final residual = 0.000295455, No Iterations 3
time step continuity errors : sum local = 0.00246999, global = 0.000546199, cumulative = 0.000546199
ExecutionTime = 7.10579 s  ClockTime = 13 s

volFieldValue volAvgFinTemperature write:
    volAverage() of T = 303.792

volFieldValue volAvgHeaterTemperature write:
    volAverage() of T = 316.373

surfaceFieldValue averageTempHeaterFinInterface write:
    areaAverage(heater_to_fins) of T = 303.92

Region: fluid Courant Number mean: 1324.32 max: 49837.2
Region: fins Diffusion Number mean: 124.24 max: 149517
Region: heater Diffusion Number mean: 71.9582 max: 655.768
Time = 5s


Solving for solid region fins
GAMG:  Solving for e, Initial residual = 0.515519, Final residual = 0.0109486, No Iterations 1
Min/max T:303.681 306.599

Solving for solid region heater
GAMG:  Solving for e, Initial residual = 0.0766849, Final residual = 0.000920076, No Iterations 1
Min/max T:305.586 324.536

Solving for fluid region fluid
DILUPBiCGStab:  Solving for Ux, Initial residual = 0.0176492, Final residual = 0.000749406, No Iterations 1
DILUPBiCGStab:  Solving for Uy, Initial residual = 0.0348321, Final residual = 0.00135216, No Iterations 1
DILUPBiCGStab:  Solving for Uz, Initial residual = 0.0425837, Final residual = 0.00181514, No Iterations 1
DILUPBiCGStab:  Solving for h, Initial residual = 0.0235678, Final residual = 0.00233599, No Iterations 1
Min/max T:296.73 306.323
GAMG:  Solving for p_rgh, Initial residual = 0.0992109, Final residual = 0.000915434, No Iterations 5
GAMG:  Solving for p_rgh, Initial residual = 0.251305, Final residual = 0.00167191, No Iterations 2
GAMG:  Solving for p_rgh, Initial residual = 0.0331419, Final residual = 0.000250508, No Iterations 3
time step continuity errors : sum local = 0.00129225, global = -0.000252337, cumulative = -0.000252337
ExecutionTime = 7.32172 s  ClockTime = 13 s

volFieldValue volAvgFinTemperature write:
    volAverage() of T = 306.073

volFieldValue volAvgHeaterTemperature write:
    volAverage() of T = 318.768

surfaceFieldValue averageTempHeaterFinInterface write:
    areaAverage(heater_to_fins) of T = 306.247

Region: fluid Courant Number mean: 1324.08 max: 49347.8
Region: fins Diffusion Number mean: 124.24 max: 149517
Region: heater Diffusion Number mean: 71.9582 max: 655.768
Time = 6s


Solving for solid region fins
GAMG:  Solving for e, Initial residual = 0.492149, Final residual = 0.0110742, No Iterations 1
Min/max T:305.973 308.917

Solving for solid region heater
GAMG:  Solving for e, Initial residual = 0.0746389, Final residual = 0.000557079, No Iterations 1
Min/max T:307.895 326.92

Solving for fluid region fluid
DILUPBiCGStab:  Solving for Ux, Initial residual = 0.00874497, Final residual = 0.000381724, No Iterations 1
DILUPBiCGStab:  Solving for Uy, Initial residual = 0.0169073, Final residual = 0.000662849, No Iterations 1
DILUPBiCGStab:  Solving for Uz, Initial residual = 0.0214527, Final residual = 0.000930436, No Iterations 1
DILUPBiCGStab:  Solving for h, Initial residual = 0.0160349, Final residual = 0.0015245, No Iterations 1
Min/max T:296.819 308.63
GAMG:  Solving for p_rgh, Initial residual = 0.0720334, Final residual = 0.000543109, No Iterations 5
GAMG:  Solving for p_rgh, Initial residual = 0.0913592, Final residual = 0.000584154, No Iterations 2
GAMG:  Solving for p_rgh, Initial residual = 0.0113733, Final residual = 7.71075e-05, No Iterations 3
time step continuity errors : sum local = 0.000467816, global = 9.41568e-05, cumulative = 9.41568e-05
ExecutionTime = 7.57484 s  ClockTime = 14 s

volFieldValue volAvgFinTemperature write:
    volAverage() of T = 308.342

volFieldValue volAvgHeaterTemperature write:
    volAverage() of T = 321.123

surfaceFieldValue averageTempHeaterFinInterface write:
    areaAverage(heater_to_fins) of T = 308.562

Region: fluid Courant Number mean: 1323.91 max: 48943.8
Region: fins Diffusion Number mean: 124.24 max: 149517
Region: heater Diffusion Number mean: 71.9582 max: 655.768
Time = 7s


Solving for solid region fins
GAMG:  Solving for e, Initial residual = 0.470583, Final residual = 0.011163, No Iterations 1
Min/max T:308.224 311.219

Solving for solid region heater
GAMG:  Solving for e, Initial residual = 0.073243, Final residual = 0.000341891, No Iterations 1
Min/max T:310.197 329.262

Solving for fluid region fluid
DILUPBiCGStab:  Solving for Ux, Initial residual = 0.00470769, Final residual = 0.00018945, No Iterations 1
DILUPBiCGStab:  Solving for Uy, Initial residual = 0.0104148, Final residual = 0.00034237, No Iterations 1
DILUPBiCGStab:  Solving for Uz, Initial residual = 0.010494, Final residual = 0.00040624, No Iterations 1
DILUPBiCGStab:  Solving for h, Initial residual = 0.0120067, Final residual = 0.00103086, No Iterations 1
Min/max T:296.865 310.919
GAMG:  Solving for p_rgh, Initial residual = 0.0404517, Final residual = 0.000212247, No Iterations 5
GAMG:  Solving for p_rgh, Initial residual = 0.0426027, Final residual = 0.000260384, No Iterations 2
GAMG:  Solving for p_rgh, Initial residual = 0.00541114, Final residual = 3.36564e-05, No Iterations 3
time step continuity errors : sum local = 0.00018542, global = -4.18787e-05, cumulative = -4.18787e-05
ExecutionTime = 7.80139 s  ClockTime = 14 s

volFieldValue volAvgFinTemperature write:
    volAverage() of T = 310.595

volFieldValue volAvgHeaterTemperature write:
    volAverage() of T = 323.446

surfaceFieldValue averageTempHeaterFinInterface write:
    areaAverage(heater_to_fins) of T = 310.865

Region: fluid Courant Number mean: 1323.72 max: 48544.8
Region: fins Diffusion Number mean: 124.24 max: 149517
Region: heater Diffusion Number mean: 71.9582 max: 655.768
Time = 8s


Solving for solid region fins
GAMG:  Solving for e, Initial residual = 0.450238, Final residual = 0.0111298, No Iterations 1
Min/max T:310.451 313.505

Solving for solid region heater
GAMG:  Solving for e, Initial residual = 0.0722083, Final residual = 0.000210761, No Iterations 1
Min/max T:312.487 331.572

Solving for fluid region fluid
DILUPBiCGStab:  Solving for Ux, Initial residual = 0.00377882, Final residual = 0.000164503, No Iterations 1
DILUPBiCGStab:  Solving for Uy, Initial residual = 0.00852192, Final residual = 0.000303812, No Iterations 1
DILUPBiCGStab:  Solving for Uz, Initial residual = 0.00988735, Final residual = 0.000421495, No Iterations 1
DILUPBiCGStab:  Solving for h, Initial residual = 0.00968428, Final residual = 0.000795248, No Iterations 1
Min/max T:296.862 313.189
GAMG:  Solving for p_rgh, Initial residual = 0.0311856, Final residual = 0.000273607, No Iterations 4
GAMG:  Solving for p_rgh, Initial residual = 0.0169122, Final residual = 0.000119789, No Iterations 2
GAMG:  Solving for p_rgh, Initial residual = 0.00221238, Final residual = 1.6723e-05, No Iterations 3
time step continuity errors : sum local = 9.59683e-05, global = 1.93117e-05, cumulative = 1.93117e-05
ExecutionTime = 7.98908 s  ClockTime = 15 s

volFieldValue volAvgFinTemperature write:
    volAverage() of T = 312.832

volFieldValue volAvgHeaterTemperature write:
    volAverage() of T = 325.744

surfaceFieldValue averageTempHeaterFinInterface write:
    areaAverage(heater_to_fins) of T = 313.152

Region: fluid Courant Number mean: 1323.55 max: 48124.4
Region: fins Diffusion Number mean: 124.24 max: 149517
Region: heater Diffusion Number mean: 71.9582 max: 655.768
Time = 9s


Solving for solid region fins
GAMG:  Solving for e, Initial residual = 0.430677, Final residual = 0.0110414, No Iterations 1
Min/max T:312.657 315.775

Solving for solid region heater
GAMG:  Solving for e, Initial residual = 0.0713648, Final residual = 0.000130819, No Iterations 1
Min/max T:314.764 333.856

Solving for fluid region fluid
DILUPBiCGStab:  Solving for Ux, Initial residual = 0.00320173, Final residual = 0.000137831, No Iterations 1
DILUPBiCGStab:  Solving for Uy, Initial residual = 0.00699371, Final residual = 0.000248438, No Iterations 1
DILUPBiCGStab:  Solving for Uz, Initial residual = 0.0073585, Final residual = 0.000307564, No Iterations 1
DILUPBiCGStab:  Solving for h, Initial residual = 0.00819613, Final residual = 0.00065398, No Iterations 1
Min/max T:296.863 315.441
GAMG:  Solving for p_rgh, Initial residual = 0.0239038, Final residual = 0.000132598, No Iterations 4
GAMG:  Solving for p_rgh, Initial residual = 0.00837962, Final residual = 6.60871e-05, No Iterations 2
GAMG:  Solving for p_rgh, Initial residual = 0.0011666, Final residual = 1.04442e-05, No Iterations 3
time step continuity errors : sum local = 5.90654e-05, global = 6.38869e-06, cumulative = 6.38869e-06
ExecutionTime = 8.16507 s  ClockTime = 15 s

volFieldValue volAvgFinTemperature write:
    volAverage() of T = 315.052

volFieldValue volAvgHeaterTemperature write:
    volAverage() of T = 328.021

surfaceFieldValue averageTempHeaterFinInterface write:
    areaAverage(heater_to_fins) of T = 315.424

Region: fluid Courant Number mean: 1323.38 max: 47672.1
Region: fins Diffusion Number mean: 124.24 max: 149517
Region: heater Diffusion Number mean: 71.9582 max: 655.768
Time = 10s


Solving for solid region fins
GAMG:  Solving for e, Initial residual = 0.412005, Final residual = 0.0108804, No Iterations 1
Min/max T:314.836 318.029

Solving for solid region heater
GAMG:  Solving for e, Initial residual = 0.0706405, Final residual = 8.18937e-05, No Iterations 1
Min/max T:317.026 336.117

Solving for fluid region fluid
DILUPBiCGStab:  Solving for Ux, Initial residual = 0.00295829, Final residual = 0.000130873, No Iterations 1
DILUPBiCGStab:  Solving for Uy, Initial residual = 0.00639251, Final residual = 0.000239772, No Iterations 1
DILUPBiCGStab:  Solving for Uz, Initial residual = 0.00722387, Final residual = 0.000313166, No Iterations 1
DILUPBiCGStab:  Solving for h, Initial residual = 0.0071323, Final residual = 0.000552153, No Iterations 1
Min/max T:296.859 317.675
GAMG:  Solving for p_rgh, Initial residual = 0.0206237, Final residual = 0.000148574, No Iterations 3
GAMG:  Solving for p_rgh, Initial residual = 0.00420498, Final residual = 2.3616e-05, No Iterations 3
GAMG:  Solving for p_rgh, Initial residual = 0.000732419, Final residual = 5.24021e-06, No Iterations 3
time step continuity errors : sum local = 2.98877e-05, global = -8.67515e-07, cumulative = -8.67515e-07
ExecutionTime = 8.32691 s  ClockTime = 15 s

volFieldValue volAvgFinTemperature write:
    volAverage() of T = 317.255

volFieldValue volAvgHeaterTemperature write:
    volAverage() of T = 330.277

surfaceFieldValue averageTempHeaterFinInterface write:
    areaAverage(heater_to_fins) of T = 317.679

Region: fluid Courant Number mean: 1323.22 max: 47186.3
Region: fins Diffusion Number mean: 124.24 max: 149517
Region: heater Diffusion Number mean: 71.9582 max: 655.768
Time = 11s


Solving for solid region fins
GAMG:  Solving for e, Initial residual = 0.394404, Final residual = 0.0106771, No Iterations 1
Min/max T:316.997 320.267

Solving for solid region heater
GAMG:  Solving for e, Initial residual = 0.0699892, Final residual = 5.29046e-05, No Iterations 1
Min/max T:319.274 338.358

Solving for fluid region fluid
DILUPBiCGStab:  Solving for Ux, Initial residual = 0.00276883, Final residual = 0.000122776, No Iterations 1
DILUPBiCGStab:  Solving for Uy, Initial residual = 0.00575714, Final residual = 0.000221862, No Iterations 1
DILUPBiCGStab:  Solving for Uz, Initial residual = 0.00639636, Final residual = 0.000277729, No Iterations 1
DILUPBiCGStab:  Solving for h, Initial residual = 0.00635398, Final residual = 0.000474586, No Iterations 1
Min/max T:296.855 319.892
GAMG:  Solving for p_rgh, Initial residual = 0.0175044, Final residual = 7.77613e-05, No Iterations 3
GAMG:  Solving for p_rgh, Initial residual = 0.00282587, Final residual = 1.41308e-05, No Iterations 3
GAMG:  Solving for p_rgh, Initial residual = 0.000477568, Final residual = 3.31229e-06, No Iterations 3
time step continuity errors : sum local = 1.88736e-05, global = 2.57431e-06, cumulative = 2.57431e-06
ExecutionTime = 8.5202 s  ClockTime = 15 s

volFieldValue volAvgFinTemperature write:
    volAverage() of T = 319.442

volFieldValue volAvgHeaterTemperature write:
    volAverage() of T = 332.515

surfaceFieldValue averageTempHeaterFinInterface write:
    areaAverage(heater_to_fins) of T = 319.919

Region: fluid Courant Number mean: 1323.06 max: 46674.4
Region: fins Diffusion Number mean: 124.24 max: 149517
Region: heater Diffusion Number mean: 71.9582 max: 655.768
Time = 12s


Solving for solid region fins
GAMG:  Solving for e, Initial residual = 0.377714, Final residual = 0.0104281, No Iterations 1
Min/max T:319.138 322.489

Solving for solid region heater
GAMG:  Solving for e, Initial residual = 0.0693827, Final residual = 3.63327e-05, No Iterations 1
Min/max T:321.506 340.581

Solving for fluid region fluid
DILUPBiCGStab:  Solving for Ux, Initial residual = 0.00261471, Final residual = 0.000116612, No Iterations 1
DILUPBiCGStab:  Solving for Uy, Initial residual = 0.00534989, Final residual = 0.000211271, No Iterations 1
DILUPBiCGStab:  Solving for Uz, Initial residual = 0.0060712, Final residual = 0.000265945, No Iterations 1
DILUPBiCGStab:  Solving for h, Initial residual = 0.00575093, Final residual = 0.000421983, No Iterations 1
Min/max T:296.851 322.092
GAMG:  Solving for p_rgh, Initial residual = 0.0154051, Final residual = 0.000134379, No Iterations 2
GAMG:  Solving for p_rgh, Initial residual = 0.00227952, Final residual = 1.54095e-05, No Iterations 3
GAMG:  Solving for p_rgh, Initial residual = 0.000429128, Final residual = 3.33201e-06, No Iterations 3
time step continuity errors : sum local = 1.90407e-05, global = 2.89868e-07, cumulative = 2.89868e-07
ExecutionTime = 8.67123 s  ClockTime = 16 s

volFieldValue volAvgFinTemperature write:
    volAverage() of T = 321.613

volFieldValue volAvgHeaterTemperature write:
    volAverage() of T = 334.736

surfaceFieldValue averageTempHeaterFinInterface write:
    areaAverage(heater_to_fins) of T = 322.143

Region: fluid Courant Number mean: 1322.91 max: 46145.1
Region: fins Diffusion Number mean: 124.24 max: 149517
Region: heater Diffusion Number mean: 71.9582 max: 655.768
Time = 13s


Solving for solid region fins
GAMG:  Solving for e, Initial residual = 0.361899, Final residual = 0.0101648, No Iterations 1
Min/max T:321.262 324.695

Solving for solid region heater
GAMG:  Solving for e, Initial residual = 0.0688056, Final residual = 2.76976e-05, No Iterations 1
Min/max T:323.723 342.786

Solving for fluid region fluid
DILUPBiCGStab:  Solving for Ux, Initial residual = 0.00249077, Final residual = 0.000111259, No Iterations 1
DILUPBiCGStab:  Solving for Uy, Initial residual = 0.0049982, Final residual = 0.000200053, No Iterations 1
DILUPBiCGStab:  Solving for Uz, Initial residual = 0.00565761, Final residual = 0.000248384, No Iterations 1
DILUPBiCGStab:  Solving for h, Initial residual = 0.00528686, Final residual = 0.000385022, No Iterations 1
Min/max T:296.847 324.276
GAMG:  Solving for p_rgh, Initial residual = 0.0140613, Final residual = 0.000102235, No Iterations 2
GAMG:  Solving for p_rgh, Initial residual = 0.00208625, Final residual = 1.19702e-05, No Iterations 3
GAMG:  Solving for p_rgh, Initial residual = 0.000367008, Final residual = 2.85336e-06, No Iterations 3
time step continuity errors : sum local = 1.63358e-05, global = -1.47469e-06, cumulative = -1.47469e-06
ExecutionTime = 8.85776 s  ClockTime = 16 s

volFieldValue volAvgFinTemperature write:
    volAverage() of T = 323.767

volFieldValue volAvgHeaterTemperature write:
    volAverage() of T = 336.94

surfaceFieldValue averageTempHeaterFinInterface write:
    areaAverage(heater_to_fins) of T = 324.35

Region: fluid Courant Number mean: 1322.76 max: 45608.8
Region: fins Diffusion Number mean: 124.24 max: 149517
Region: heater Diffusion Number mean: 71.9582 max: 655.768
Time = 14s


Solving for solid region fins
GAMG:  Solving for e, Initial residual = 0.346883, Final residual = 0.00988322, No Iterations 1
Min/max T:323.367 326.884

Solving for solid region heater
GAMG:  Solving for e, Initial residual = 0.0682503, Final residual = 2.28996e-05, No Iterations 1
Min/max T:325.925 344.974

Solving for fluid region fluid
DILUPBiCGStab:  Solving for Ux, Initial residual = 0.0023831, Final residual = 0.000106523, No Iterations 1
DILUPBiCGStab:  Solving for Uy, Initial residual = 0.0047163, Final residual = 0.000190892, No Iterations 1
DILUPBiCGStab:  Solving for Uz, Initial residual = 0.00536506, Final residual = 0.000235946, No Iterations 1
DILUPBiCGStab:  Solving for h, Initial residual = 0.00490013, Final residual = 0.00035101, No Iterations 1
Min/max T:296.839 326.443
GAMG:  Solving for p_rgh, Initial residual = 0.0127355, Final residual = 0.000105635, No Iterations 2
GAMG:  Solving for p_rgh, Initial residual = 0.00192916, Final residual = 1.16248e-05, No Iterations 3
GAMG:  Solving for p_rgh, Initial residual = 0.000339233, Final residual = 2.70538e-06, No Iterations 3
time step continuity errors : sum local = 1.55261e-05, global = -1.22805e-06, cumulative = -1.22805e-06
ExecutionTime = 9.02119 s  ClockTime = 16 s

volFieldValue volAvgFinTemperature write:
    volAverage() of T = 325.905

volFieldValue volAvgHeaterTemperature write:
    volAverage() of T = 339.127

surfaceFieldValue averageTempHeaterFinInterface write:
    areaAverage(heater_to_fins) of T = 326.542

Region: fluid Courant Number mean: 1322.61 max: 45075.7
Region: fins Diffusion Number mean: 124.24 max: 149517
Region: heater Diffusion Number mean: 71.9582 max: 655.768
Time = 15s


Solving for solid region fins
GAMG:  Solving for e, Initial residual = 0.33267, Final residual = 0.00958808, No Iterations 1
Min/max T:325.456 329.058

Solving for solid region heater
GAMG:  Solving for e, Initial residual = 0.0677094, Final residual = 2.02428e-05, No Iterations 1
Min/max T:328.11 347.146

Solving for fluid region fluid
DILUPBiCGStab:  Solving for Ux, Initial residual = 0.00229183, Final residual = 0.00010234, No Iterations 1
DILUPBiCGStab:  Solving for Uy, Initial residual = 0.00446795, Final residual = 0.000182707, No Iterations 1
DILUPBiCGStab:  Solving for Uz, Initial residual = 0.0050904, Final residual = 0.0002236, No Iterations 1
DILUPBiCGStab:  Solving for h, Initial residual = 0.00457489, Final residual = 0.000327555, No Iterations 1
Min/max T:296.812 328.594
GAMG:  Solving for p_rgh, Initial residual = 0.0118747, Final residual = 9.89525e-05, No Iterations 2
GAMG:  Solving for p_rgh, Initial residual = 0.0017859, Final residual = 1.10371e-05, No Iterations 3
GAMG:  Solving for p_rgh, Initial residual = 0.000319735, Final residual = 2.50921e-06, No Iterations 3
time step continuity errors : sum local = 1.44279e-05, global = -1.1253e-06, cumulative = -1.1253e-06
ExecutionTime = 9.19673 s  ClockTime = 17 s

volFieldValue volAvgFinTemperature write:
    volAverage() of T = 328.028

volFieldValue volAvgHeaterTemperature write:
    volAverage() of T = 341.298

surfaceFieldValue averageTempHeaterFinInterface write:
    areaAverage(heater_to_fins) of T = 328.718

Region: fluid Courant Number mean: 1322.47 max: 44555.2
Region: fins Diffusion Number mean: 124.24 max: 149517
Region: heater Diffusion Number mean: 71.9582 max: 655.768
Time = 16s


Solving for solid region fins
GAMG:  Solving for e, Initial residual = 0.319126, Final residual = 0.0092818, No Iterations 1
Min/max T:327.528 331.217

Solving for solid region heater
GAMG:  Solving for e, Initial residual = 0.0671805, Final residual = 1.87083e-05, No Iterations 1
Min/max T:330.28 349.302

Solving for fluid region fluid
DILUPBiCGStab:  Solving for Ux, Initial residual = 0.00221168, Final residual = 9.85802e-05, No Iterations 1
DILUPBiCGStab:  Solving for Uy, Initial residual = 0.00426678, Final residual = 0.000175701, No Iterations 1
DILUPBiCGStab:  Solving for Uz, Initial residual = 0.00486174, Final residual = 0.0002131, No Iterations 1
DILUPBiCGStab:  Solving for h, Initial residual = 0.00429657, Final residual = 0.00030797, No Iterations 1
Min/max T:296.79 330.729
GAMG:  Solving for p_rgh, Initial residual = 0.0113106, Final residual = 0.000100038, No Iterations 2
GAMG:  Solving for p_rgh, Initial residual = 0.00172367, Final residual = 1.18247e-05, No Iterations 3
GAMG:  Solving for p_rgh, Initial residual = 0.000321888, Final residual = 2.57569e-06, No Iterations 3
time step continuity errors : sum local = 1.48399e-05, global = -9.98661e-07, cumulative = -9.98661e-07
ExecutionTime = 9.40812 s  ClockTime = 17 s

volFieldValue volAvgFinTemperature write:
    volAverage() of T = 330.134

volFieldValue volAvgHeaterTemperature write:
    volAverage() of T = 343.454

surfaceFieldValue averageTempHeaterFinInterface write:
    areaAverage(heater_to_fins) of T = 330.878

Region: fluid Courant Number mean: 1322.33 max: 44055.1
Region: fins Diffusion Number mean: 124.24 max: 149517
Region: heater Diffusion Number mean: 71.9582 max: 655.768
Time = 17s


Solving for solid region fins
GAMG:  Solving for e, Initial residual = 0.306297, Final residual = 0.00897031, No Iterations 1
Min/max T:329.583 333.36

Solving for solid region heater
GAMG:  Solving for e, Initial residual = 0.0666587, Final residual = 1.7823e-05, No Iterations 1
Min/max T:332.435 351.442

Solving for fluid region fluid
DILUPBiCGStab:  Solving for Ux, Initial residual = 0.00214192, Final residual = 9.52612e-05, No Iterations 1
DILUPBiCGStab:  Solving for Uy, Initial residual = 0.00409653, Final residual = 0.000169622, No Iterations 1
DILUPBiCGStab:  Solving for Uz, Initial residual = 0.00465336, Final residual = 0.000203574, No Iterations 1
DILUPBiCGStab:  Solving for h, Initial residual = 0.00405816, Final residual = 0.000288567, No Iterations 1
Min/max T:296.771 332.861
GAMG:  Solving for p_rgh, Initial residual = 0.0106363, Final residual = 9.58661e-05, No Iterations 2
GAMG:  Solving for p_rgh, Initial residual = 0.00171667, Final residual = 1.09979e-05, No Iterations 3
GAMG:  Solving for p_rgh, Initial residual = 0.000313877, Final residual = 2.31602e-06, No Iterations 3
time step continuity errors : sum local = 1.33784e-05, global = 6.70177e-07, cumulative = 6.70177e-07
ExecutionTime = 9.581 s  ClockTime = 17 s

volFieldValue volAvgFinTemperature write:
    volAverage() of T = 332.226

volFieldValue volAvgHeaterTemperature write:
    volAverage() of T = 345.594

surfaceFieldValue averageTempHeaterFinInterface write:
    areaAverage(heater_to_fins) of T = 333.023

Region: fluid Courant Number mean: 1322.2 max: 43582.3
Region: fins Diffusion Number mean: 124.24 max: 149517
Region: heater Diffusion Number mean: 71.9582 max: 655.768
Time = 18s


Solving for solid region fins
GAMG:  Solving for e, Initial residual = 0.294275, Final residual = 0.00866718, No Iterations 1
Min/max T:331.623 335.487

Solving for solid region heater
GAMG:  Solving for e, Initial residual = 0.0661436, Final residual = 1.7312e-05, No Iterations 1
Min/max T:334.575 353.567

Solving for fluid region fluid
DILUPBiCGStab:  Solving for Ux, Initial residual = 0.00207868, Final residual = 9.21667e-05, No Iterations 1
DILUPBiCGStab:  Solving for Uy, Initial residual = 0.00394303, Final residual = 0.00016413, No Iterations 1
DILUPBiCGStab:  Solving for Uz, Initial residual = 0.00445201, Final residual = 0.000194433, No Iterations 1
DILUPBiCGStab:  Solving for h, Initial residual = 0.0038552, Final residual = 0.000272331, No Iterations 1
Min/max T:296.754 334.98
GAMG:  Solving for p_rgh, Initial residual = 0.0100429, Final residual = 9.59392e-05, No Iterations 2
GAMG:  Solving for p_rgh, Initial residual = 0.00153969, Final residual = 1.00233e-05, No Iterations 3
GAMG:  Solving for p_rgh, Initial residual = 0.000281999, Final residual = 2.05004e-06, No Iterations 3
time step continuity errors : sum local = 1.18571e-05, global = -9.84933e-07, cumulative = -9.84933e-07
ExecutionTime = 9.75102 s  ClockTime = 18 s

volFieldValue volAvgFinTemperature write:
    volAverage() of T = 334.302

volFieldValue volAvgHeaterTemperature write:
    volAverage() of T = 347.718

surfaceFieldValue averageTempHeaterFinInterface write:
    areaAverage(heater_to_fins) of T = 335.153

Region: fluid Courant Number mean: 1322.07 max: 43142
Region: fins Diffusion Number mean: 124.24 max: 149517
Region: heater Diffusion Number mean: 71.9582 max: 655.768
Time = 19s


Solving for solid region fins
GAMG:  Solving for e, Initial residual = 0.283025, Final residual = 0.00837446, No Iterations 1
Min/max T:333.647 337.6

Solving for solid region heater
GAMG:  Solving for e, Initial residual = 0.0656345, Final residual = 1.7021e-05, No Iterations 1
Min/max T:336.699 355.676

Solving for fluid region fluid
DILUPBiCGStab:  Solving for Ux, Initial residual = 0.00201908, Final residual = 8.9293e-05, No Iterations 1
DILUPBiCGStab:  Solving for Uy, Initial residual = 0.00381202, Final residual = 0.000159188, No Iterations 1
DILUPBiCGStab:  Solving for Uz, Initial residual = 0.00427973, Final residual = 0.000186519, No Iterations 1
DILUPBiCGStab:  Solving for h, Initial residual = 0.00367435, Final residual = 0.000259485, No Iterations 1
Min/max T:296.739 337.083
GAMG:  Solving for p_rgh, Initial residual = 0.00912274, Final residual = 8.24202e-05, No Iterations 2
GAMG:  Solving for p_rgh, Initial residual = 0.00138923, Final residual = 9.08648e-06, No Iterations 3
GAMG:  Solving for p_rgh, Initial residual = 0.000254301, Final residual = 1.93495e-06, No Iterations 3
time step continuity errors : sum local = 1.12017e-05, global = -1.88256e-06, cumulative = -1.88256e-06
ExecutionTime = 9.92232 s  ClockTime = 18 s

volFieldValue volAvgFinTemperature write:
    volAverage() of T = 336.364

volFieldValue volAvgHeaterTemperature write:
    volAverage() of T = 349.828

surfaceFieldValue averageTempHeaterFinInterface write:
    areaAverage(heater_to_fins) of T = 337.267

Region: fluid Courant Number mean: 1321.94 max: 42738.1
Region: fins Diffusion Number mean: 124.24 max: 149517
Region: heater Diffusion Number mean: 71.9582 max: 655.768
Time = 20s


Solving for solid region fins
GAMG:  Solving for e, Initial residual = 0.272435, Final residual = 0.00808717, No Iterations 1
Min/max T:335.656 339.697

Solving for solid region heater
GAMG:  Solving for e, Initial residual = 0.0651308, Final residual = 1.6863e-05, No Iterations 1
Min/max T:338.808 357.771

Solving for fluid region fluid
DILUPBiCGStab:  Solving for Ux, Initial residual = 0.00196671, Final residual = 8.67305e-05, No Iterations 1
DILUPBiCGStab:  Solving for Uy, Initial residual = 0.00368364, Final residual = 0.000154359, No Iterations 1
DILUPBiCGStab:  Solving for Uz, Initial residual = 0.00412433, Final residual = 0.000179265, No Iterations 1
DILUPBiCGStab:  Solving for h, Initial residual = 0.00351345, Final residual = 0.000248937, No Iterations 1
Min/max T:296.724 339.171
GAMG:  Solving for p_rgh, Initial residual = 0.00850406, Final residual = 7.70185e-05, No Iterations 2
GAMG:  Solving for p_rgh, Initial residual = 0.00129139, Final residual = 8.64764e-06, No Iterations 3
GAMG:  Solving for p_rgh, Initial residual = 0.000241185, Final residual = 1.81407e-06, No Iterations 3
time step continuity errors : sum local = 1.05092e-05, global = -1.55416e-06, cumulative = -1.55416e-06
ExecutionTime = 10.085 s  ClockTime = 18 s

volFieldValue volAvgFinTemperature write:
    volAverage() of T = 338.41

volFieldValue volAvgHeaterTemperature write:
    volAverage() of T = 351.922

surfaceFieldValue averageTempHeaterFinInterface write:
    areaAverage(heater_to_fins) of T = 339.366

Region: fluid Courant Number mean: 1321.82 max: 42373.1
Region: fins Diffusion Number mean: 124.24 max: 149517
Region: heater Diffusion Number mean: 71.9582 max: 655.768
Time = 21s


Solving for solid region fins
GAMG:  Solving for e, Initial residual = 0.262418, Final residual = 0.00781224, No Iterations 1
Min/max T:337.649 341.779

Solving for solid region heater
GAMG:  Solving for e, Initial residual = 0.0646309, Final residual = 1.675e-05, No Iterations 1
Min/max T:340.902 359.85

Solving for fluid region fluid
DILUPBiCGStab:  Solving for Ux, Initial residual = 0.00191926, Final residual = 8.43807e-05, No Iterations 1
DILUPBiCGStab:  Solving for Uy, Initial residual = 0.00356557, Final residual = 0.000150116, No Iterations 1
DILUPBiCGStab:  Solving for Uz, Initial residual = 0.00397766, Final residual = 0.000172519, No Iterations 1
DILUPBiCGStab:  Solving for h, Initial residual = 0.00336448, Final residual = 0.000238165, No Iterations 1
Min/max T:296.711 341.245
GAMG:  Solving for p_rgh, Initial residual = 0.0082491, Final residual = 7.48775e-05, No Iterations 2
GAMG:  Solving for p_rgh, Initial residual = 0.00123991, Final residual = 8.48984e-06, No Iterations 3
GAMG:  Solving for p_rgh, Initial residual = 0.000236124, Final residual = 1.84264e-06, No Iterations 3
time step continuity errors : sum local = 1.06849e-05, global = -1.73203e-06, cumulative = -1.73203e-06
ExecutionTime = 10.242 s  ClockTime = 19 s

volFieldValue volAvgFinTemperature write:
    volAverage() of T = 340.442

volFieldValue volAvgHeaterTemperature write:
    volAverage() of T = 354.001

surfaceFieldValue averageTempHeaterFinInterface write:
    areaAverage(heater_to_fins) of T = 341.45

Region: fluid Courant Number mean: 1321.7 max: 42048.5
Region: fins Diffusion Number mean: 124.24 max: 149517
Region: heater Diffusion Number mean: 71.9582 max: 655.768
Time = 22s


Solving for solid region fins
GAMG:  Solving for e, Initial residual = 0.253001, Final residual = 0.00754494, No Iterations 1
Min/max T:339.628 343.846

Solving for solid region heater
GAMG:  Solving for e, Initial residual = 0.0641359, Final residual = 1.66376e-05, No Iterations 1
Min/max T:342.977 361.915

Solving for fluid region fluid
DILUPBiCGStab:  Solving for Ux, Initial residual = 0.00187567, Final residual = 8.22306e-05, No Iterations 1
DILUPBiCGStab:  Solving for Uy, Initial residual = 0.00346009, Final residual = 0.000146264, No Iterations 1
DILUPBiCGStab:  Solving for Uz, Initial residual = 0.00384256, Final residual = 0.000166356, No Iterations 1
DILUPBiCGStab:  Solving for h, Initial residual = 0.00322686, Final residual = 0.000227977, No Iterations 1
Min/max T:296.697 343.303
GAMG:  Solving for p_rgh, Initial residual = 0.00843667, Final residual = 7.57243e-05, No Iterations 2
GAMG:  Solving for p_rgh, Initial residual = 0.00136837, Final residual = 9.38854e-06, No Iterations 3
GAMG:  Solving for p_rgh, Initial residual = 0.000254444, Final residual = 2.07243e-06, No Iterations 3
time step continuity errors : sum local = 1.20314e-05, global = -1.99505e-06, cumulative = -1.99505e-06
ExecutionTime = 10.3974 s  ClockTime = 19 s

volFieldValue volAvgFinTemperature write:
    volAverage() of T = 342.459

volFieldValue volAvgHeaterTemperature write:
    volAverage() of T = 356.066

surfaceFieldValue averageTempHeaterFinInterface write:
    areaAverage(heater_to_fins) of T = 343.519

Region: fluid Courant Number mean: 1321.58 max: 41764.5
Region: fins Diffusion Number mean: 124.24 max: 149517
Region: heater Diffusion Number mean: 71.9582 max: 655.768
Time = 23s


Solving for solid region fins
GAMG:  Solving for e, Initial residual = 0.244147, Final residual = 0.00728856, No Iterations 1
Min/max T:341.592 345.9

Solving for solid region heater
GAMG:  Solving for e, Initial residual = 0.0636462, Final residual = 1.65217e-05, No Iterations 1
Min/max T:345.029 363.965

Solving for fluid region fluid
DILUPBiCGStab:  Solving for Ux, Initial residual = 0.00183551, Final residual = 8.0269e-05, No Iterations 1
DILUPBiCGStab:  Solving for Uy, Initial residual = 0.00336725, Final residual = 0.000142646, No Iterations 1
DILUPBiCGStab:  Solving for Uz, Initial residual = 0.00372287, Final residual = 0.000160715, No Iterations 1
DILUPBiCGStab:  Solving for h, Initial residual = 0.00310971, Final residual = 0.000211961, No Iterations 1
Min/max T:296.684 345.347
GAMG:  Solving for p_rgh, Initial residual = 0.00799272, Final residual = 2.9848e-05, No Iterations 3
GAMG:  Solving for p_rgh, Initial residual = 0.00118968, Final residual = 6.21746e-06, No Iterations 3
GAMG:  Solving for p_rgh, Initial residual = 0.00019511, Final residual = 1.62422e-06, No Iterations 3
time step continuity errors : sum local = 9.44033e-06, global = -1.4394e-06, cumulative = -1.4394e-06
ExecutionTime = 10.5502 s  ClockTime = 19 s

volFieldValue volAvgFinTemperature write:
    volAverage() of T = 344.462

volFieldValue volAvgHeaterTemperature write:
    volAverage() of T = 358.115

surfaceFieldValue averageTempHeaterFinInterface write:
    areaAverage(heater_to_fins) of T = 345.574

Region: fluid Courant Number mean: 1321.46 max: 41520.6
Region: fins Diffusion Number mean: 124.24 max: 149517
Region: heater Diffusion Number mean: 71.9582 max: 655.768
Time = 24s


Solving for solid region fins
GAMG:  Solving for e, Initial residual = 0.235821, Final residual = 0.00705915, No Iterations 1
Min/max T:343.542 347.939

Solving for solid region heater
GAMG:  Solving for e, Initial residual = 0.0631593, Final residual = 1.64338e-05, No Iterations 1
Min/max T:347.067 366

Solving for fluid region fluid
DILUPBiCGStab:  Solving for Ux, Initial residual = 0.0017959, Final residual = 7.82679e-05, No Iterations 1
DILUPBiCGStab:  Solving for Uy, Initial residual = 0.00327763, Final residual = 0.000138919, No Iterations 1
DILUPBiCGStab:  Solving for Uz, Initial residual = 0.00360416, Final residual = 0.000155115, No Iterations 1
DILUPBiCGStab:  Solving for h, Initial residual = 0.00298589, Final residual = 0.000208953, No Iterations 1
Min/max T:296.672 347.377
GAMG:  Solving for p_rgh, Initial residual = 0.00713808, Final residual = 6.78606e-05, No Iterations 2
GAMG:  Solving for p_rgh, Initial residual = 0.00116043, Final residual = 8.90666e-06, No Iterations 3
GAMG:  Solving for p_rgh, Initial residual = 0.000227605, Final residual = 1.98503e-06, No Iterations 3
time step continuity errors : sum local = 1.15504e-05, global = -1.63061e-06, cumulative = -1.63061e-06
ExecutionTime = 10.6902 s  ClockTime = 20 s

volFieldValue volAvgFinTemperature write:
    volAverage() of T = 346.45

volFieldValue volAvgHeaterTemperature write:
    volAverage() of T = 360.15

surfaceFieldValue averageTempHeaterFinInterface write:
    areaAverage(heater_to_fins) of T = 347.614

Region: fluid Courant Number mean: 1321.34 max: 41315.5
Region: fins Diffusion Number mean: 124.24 max: 149517
Region: heater Diffusion Number mean: 71.9582 max: 655.768
Time = 25s


Solving for solid region fins
GAMG:  Solving for e, Initial residual = 0.227997, Final residual = 0.0068344, No Iterations 1
Min/max T:345.477 349.964

Solving for solid region heater
GAMG:  Solving for e, Initial residual = 0.062678, Final residual = 1.63232e-05, No Iterations 1
Min/max T:349.09 368.021

Solving for fluid region fluid
DILUPBiCGStab:  Solving for Ux, Initial residual = 0.00175842, Final residual = 7.64463e-05, No Iterations 1
DILUPBiCGStab:  Solving for Uy, Initial residual = 0.00319344, Final residual = 0.00013544, No Iterations 1
DILUPBiCGStab:  Solving for Uz, Initial residual = 0.00348912, Final residual = 0.000149914, No Iterations 1
DILUPBiCGStab:  Solving for h, Initial residual = 0.00287274, Final residual = 0.000202722, No Iterations 1
Min/max T:296.659 349.392
GAMG:  Solving for p_rgh, Initial residual = 0.00663495, Final residual = 2.58858e-05, No Iterations 3
GAMG:  Solving for p_rgh, Initial residual = 0.00105953, Final residual = 5.29891e-06, No Iterations 3
GAMG:  Solving for p_rgh, Initial residual = 0.000179693, Final residual = 1.4211e-06, No Iterations 3
time step continuity errors : sum local = 8.27553e-06, global = -1.45942e-06, cumulative = -1.45942e-06
ExecutionTime = 10.852 s  ClockTime = 20 s

volFieldValue volAvgFinTemperature write:
    volAverage() of T = 348.424

volFieldValue volAvgHeaterTemperature write:
    volAverage() of T = 362.171

surfaceFieldValue averageTempHeaterFinInterface write:
    areaAverage(heater_to_fins) of T = 349.639

Region: fluid Courant Number mean: 1321.23 max: 41147
Region: fins Diffusion Number mean: 124.24 max: 149517
Region: heater Diffusion Number mean: 71.9582 max: 655.768
Time = 26s


Solving for solid region fins
GAMG:  Solving for e, Initial residual = 0.220606, Final residual = 0.00661819, No Iterations 1
Min/max T:347.398 351.975

Solving for solid region heater
GAMG:  Solving for e, Initial residual = 0.0622019, Final residual = 1.62075e-05, No Iterations 1
Min/max T:351.098 370.027

Solving for fluid region fluid
DILUPBiCGStab:  Solving for Ux, Initial residual = 0.00172372, Final residual = 7.4799e-05, No Iterations 1
DILUPBiCGStab:  Solving for Uy, Initial residual = 0.00311241, Final residual = 0.000131966, No Iterations 1
DILUPBiCGStab:  Solving for Uz, Initial residual = 0.0033826, Final residual = 0.000145093, No Iterations 1
DILUPBiCGStab:  Solving for h, Initial residual = 0.00276966, Final residual = 0.000194944, No Iterations 1
Min/max T:296.648 351.393
GAMG:  Solving for p_rgh, Initial residual = 0.00638488, Final residual = 6.17334e-05, No Iterations 2
GAMG:  Solving for p_rgh, Initial residual = 0.000965035, Final residual = 7.05988e-06, No Iterations 3
GAMG:  Solving for p_rgh, Initial residual = 0.000194633, Final residual = 1.48109e-06, No Iterations 3
time step continuity errors : sum local = 8.63041e-06, global = -1.37277e-06, cumulative = -1.37277e-06
ExecutionTime = 11.0227 s  ClockTime = 20 s

volFieldValue volAvgFinTemperature write:
    volAverage() of T = 350.384

volFieldValue volAvgHeaterTemperature write:
    volAverage() of T = 364.177

surfaceFieldValue averageTempHeaterFinInterface write:
    areaAverage(heater_to_fins) of T = 351.65

Region: fluid Courant Number mean: 1321.12 max: 41012.9
Region: fins Diffusion Number mean: 124.24 max: 149517
Region: heater Diffusion Number mean: 71.9582 max: 655.768
Time = 27s


Solving for solid region fins
GAMG:  Solving for e, Initial residual = 0.213548, Final residual = 0.00640971, No Iterations 1
Min/max T:349.306 353.971

Solving for solid region heater
GAMG:  Solving for e, Initial residual = 0.0617306, Final residual = 1.6091e-05, No Iterations 1
Min/max T:353.093 372.02

Solving for fluid region fluid
DILUPBiCGStab:  Solving for Ux, Initial residual = 0.00169007, Final residual = 7.3207e-05, No Iterations 1
DILUPBiCGStab:  Solving for Uy, Initial residual = 0.00303456, Final residual = 0.000128876, No Iterations 1
DILUPBiCGStab:  Solving for Uz, Initial residual = 0.00328268, Final residual = 0.000140388, No Iterations 1
DILUPBiCGStab:  Solving for h, Initial residual = 0.00267298, Final residual = 0.000187276, No Iterations 1
Min/max T:296.636 353.379
GAMG:  Solving for p_rgh, Initial residual = 0.00616191, Final residual = 6.02674e-05, No Iterations 2
GAMG:  Solving for p_rgh, Initial residual = 0.00095603, Final residual = 7.33498e-06, No Iterations 3
GAMG:  Solving for p_rgh, Initial residual = 0.000190895, Final residual = 1.56544e-06, No Iterations 3
time step continuity errors : sum local = 9.12869e-06, global = -1.56277e-06, cumulative = -1.56277e-06
ExecutionTime = 11.1906 s  ClockTime = 21 s

volFieldValue volAvgFinTemperature write:
    volAverage() of T = 352.331

volFieldValue volAvgHeaterTemperature write:
    volAverage() of T = 366.169

surfaceFieldValue averageTempHeaterFinInterface write:
    areaAverage(heater_to_fins) of T = 353.647

Region: fluid Courant Number mean: 1321.01 max: 40910.3
Region: fins Diffusion Number mean: 124.24 max: 149517
Region: heater Diffusion Number mean: 71.9582 max: 655.768
Time = 28s


Solving for solid region fins
GAMG:  Solving for e, Initial residual = 0.206842, Final residual = 0.00621112, No Iterations 1
Min/max T:351.199 355.953

Solving for solid region heater
GAMG:  Solving for e, Initial residual = 0.0612637, Final residual = 1.59753e-05, No Iterations 1
Min/max T:355.073 373.998

Solving for fluid region fluid
DILUPBiCGStab:  Solving for Ux, Initial residual = 0.00165861, Final residual = 7.17124e-05, No Iterations 1
DILUPBiCGStab:  Solving for Uy, Initial residual = 0.00296081, Final residual = 0.000125942, No Iterations 1
DILUPBiCGStab:  Solving for Uz, Initial residual = 0.00318748, Final residual = 0.000135882, No Iterations 1
DILUPBiCGStab:  Solving for h, Initial residual = 0.00258128, Final residual = 0.000179425, No Iterations 1
Min/max T:296.626 355.352
GAMG:  Solving for p_rgh, Initial residual = 0.00597427, Final residual = 2.35981e-05, No Iterations 3
GAMG:  Solving for p_rgh, Initial residual = 0.000974989, Final residual = 5.22822e-06, No Iterations 3
GAMG:  Solving for p_rgh, Initial residual = 0.000156414, Final residual = 1.43104e-06, No Iterations 3
time step continuity errors : sum local = 8.3515e-06, global = -1.52915e-06, cumulative = -1.52915e-06
ExecutionTime = 11.3522 s  ClockTime = 21 s

volFieldValue volAvgFinTemperature write:
    volAverage() of T = 354.263

volFieldValue volAvgHeaterTemperature write:
    volAverage() of T = 368.148

surfaceFieldValue averageTempHeaterFinInterface write:
    areaAverage(heater_to_fins) of T = 355.63

Region: fluid Courant Number mean: 1320.9 max: 40836.2
Region: fins Diffusion Number mean: 124.24 max: 149517
Region: heater Diffusion Number mean: 71.9582 max: 655.768
Time = 29s


Solving for solid region fins
GAMG:  Solving for e, Initial residual = 0.200498, Final residual = 0.00602239, No Iterations 1
Min/max T:353.08 357.921

Solving for solid region heater
GAMG:  Solving for e, Initial residual = 0.0608013, Final residual = 1.58583e-05, No Iterations 1
Min/max T:357.039 375.962

Solving for fluid region fluid
DILUPBiCGStab:  Solving for Ux, Initial residual = 0.00162874, Final residual = 7.02987e-05, No Iterations 1
DILUPBiCGStab:  Solving for Uy, Initial residual = 0.00289136, Final residual = 0.000122908, No Iterations 1
DILUPBiCGStab:  Solving for Uz, Initial residual = 0.0030973, Final residual = 0.000131587, No Iterations 1
DILUPBiCGStab:  Solving for h, Initial residual = 0.00249428, Final residual = 0.000172534, No Iterations 1
Min/max T:296.615 357.31
GAMG:  Solving for p_rgh, Initial residual = 0.00577164, Final residual = 2.29668e-05, No Iterations 3
GAMG:  Solving for p_rgh, Initial residual = 0.000923095, Final residual = 4.96518e-06, No Iterations 3
GAMG:  Solving for p_rgh, Initial residual = 0.000152219, Final residual = 1.33274e-06, No Iterations 3
time step continuity errors : sum local = 7.78408e-06, global = -1.4025e-06, cumulative = -1.4025e-06
ExecutionTime = 11.5141 s  ClockTime = 21 s

volFieldValue volAvgFinTemperature write:
    volAverage() of T = 356.182

volFieldValue volAvgHeaterTemperature write:
    volAverage() of T = 370.112

surfaceFieldValue averageTempHeaterFinInterface write:
    areaAverage(heater_to_fins) of T = 357.598

Region: fluid Courant Number mean: 1320.79 max: 40787.4
Region: fins Diffusion Number mean: 124.24 max: 149517
Region: heater Diffusion Number mean: 71.9582 max: 655.768
Time = 30s


Solving for solid region fins
GAMG:  Solving for e, Initial residual = 0.194474, Final residual = 0.00584525, No Iterations 1
Min/max T:354.947 359.876

Solving for solid region heater
GAMG:  Solving for e, Initial residual = 0.0603417, Final residual = 1.57551e-05, No Iterations 1
Min/max T:358.991 377.913

Solving for fluid region fluid
DILUPBiCGStab:  Solving for Ux, Initial residual = 0.00160009, Final residual = 6.89536e-05, No Iterations 1
DILUPBiCGStab:  Solving for Uy, Initial residual = 0.00282517, Final residual = 0.000119925, No Iterations 1
DILUPBiCGStab:  Solving for Uz, Initial residual = 0.00300839, Final residual = 0.000127481, No Iterations 1
DILUPBiCGStab:  Solving for h, Initial residual = 0.00241331, Final residual = 0.000165701, No Iterations 1
Min/max T:296.606 359.255
GAMG:  Solving for p_rgh, Initial residual = 0.00557931, Final residual = 2.23638e-05, No Iterations 3
GAMG:  Solving for p_rgh, Initial residual = 0.000872245, Final residual = 4.60048e-06, No Iterations 3
GAMG:  Solving for p_rgh, Initial residual = 0.000144858, Final residual = 1.15076e-06, No Iterations 3
time step continuity errors : sum local = 6.72545e-06, global = -1.1858e-06, cumulative = -1.1858e-06
ExecutionTime = 11.679 s  ClockTime = 21 s

volFieldValue volAvgFinTemperature write:
    volAverage() of T = 358.087

volFieldValue volAvgHeaterTemperature write:
    volAverage() of T = 372.062

surfaceFieldValue averageTempHeaterFinInterface write:
    areaAverage(heater_to_fins) of T = 359.553

Region: fluid Courant Number mean: 1320.68 max: 40760.9
Region: fins Diffusion Number mean: 124.24 max: 149517
Region: heater Diffusion Number mean: 71.9582 max: 655.768
Time = 31s


Solving for solid region fins
GAMG:  Solving for e, Initial residual = 0.188711, Final residual = 0.00569613, No Iterations 1
Min/max T:356.8 361.816

Solving for solid region heater
GAMG:  Solving for e, Initial residual = 0.0598808, Final residual = 1.57101e-05, No Iterations 1
Min/max T:360.93 379.849

Solving for fluid region fluid
DILUPBiCGStab:  Solving for Ux, Initial residual = 0.00157283, Final residual = 6.76757e-05, No Iterations 1
DILUPBiCGStab:  Solving for Uy, Initial residual = 0.0027639, Final residual = 0.00011724, No Iterations 1
DILUPBiCGStab:  Solving for Uz, Initial residual = 0.00292133, Final residual = 0.000123569, No Iterations 1
DILUPBiCGStab:  Solving for h, Initial residual = 0.00233753, Final residual = 0.000159886, No Iterations 1
Min/max T:296.597 361.186
GAMG:  Solving for p_rgh, Initial residual = 0.00540336, Final residual = 2.21461e-05, No Iterations 3
GAMG:  Solving for p_rgh, Initial residual = 0.000828898, Final residual = 4.4139e-06, No Iterations 3
GAMG:  Solving for p_rgh, Initial residual = 0.000139666, Final residual = 1.09934e-06, No Iterations 3
time step continuity errors : sum local = 6.42923e-06, global = -1.14892e-06, cumulative = -1.14892e-06
ExecutionTime = 11.8292 s  ClockTime = 22 s

volFieldValue volAvgFinTemperature write:
    volAverage() of T = 359.979

volFieldValue volAvgHeaterTemperature write:
    volAverage() of T = 373.998

surfaceFieldValue averageTempHeaterFinInterface write:
    areaAverage(heater_to_fins) of T = 361.494

Region: fluid Courant Number mean: 1320.58 max: 40753.4
Region: fins Diffusion Number mean: 124.24 max: 149517
Region: heater Diffusion Number mean: 71.9582 max: 655.768
Time = 32s


Solving for solid region fins
GAMG:  Solving for e, Initial residual = 0.183247, Final residual = 0.00558461, No Iterations 1
Min/max T:358.64 363.742

Solving for solid region heater
GAMG:  Solving for e, Initial residual = 0.0594163, Final residual = 1.57282e-05, No Iterations 1
Min/max T:362.854 381.771

Solving for fluid region fluid
DILUPBiCGStab:  Solving for Ux, Initial residual = 0.00154667, Final residual = 6.64545e-05, No Iterations 1
DILUPBiCGStab:  Solving for Uy, Initial residual = 0.00270466, Final residual = 0.000114666, No Iterations 1
DILUPBiCGStab:  Solving for Uz, Initial residual = 0.00283799, Final residual = 0.00011981, No Iterations 1
DILUPBiCGStab:  Solving for h, Initial residual = 0.00226555, Final residual = 0.000154192, No Iterations 1
Min/max T:296.588 363.103
GAMG:  Solving for p_rgh, Initial residual = 0.00526449, Final residual = 2.19363e-05, No Iterations 3
GAMG:  Solving for p_rgh, Initial residual = 0.000807644, Final residual = 4.35744e-06, No Iterations 3
GAMG:  Solving for p_rgh, Initial residual = 0.00013623, Final residual = 1.06215e-06, No Iterations 3
time step continuity errors : sum local = 6.21597e-06, global = -1.11208e-06, cumulative = -1.11208e-06
ExecutionTime = 11.9974 s  ClockTime = 22 s

volFieldValue volAvgFinTemperature write:
    volAverage() of T = 361.856

volFieldValue volAvgHeaterTemperature write:
    volAverage() of T = 375.92

surfaceFieldValue averageTempHeaterFinInterface write:
    areaAverage(heater_to_fins) of T = 363.421

Region: fluid Courant Number mean: 1320.47 max: 40761.9
Region: fins Diffusion Number mean: 124.24 max: 149517
Region: heater Diffusion Number mean: 71.9582 max: 655.768
Time = 33s


Solving for solid region fins
GAMG:  Solving for e, Initial residual = 0.178036, Final residual = 0.00548571, No Iterations 1
Min/max T:360.465 365.655

Solving for solid region heater
GAMG:  Solving for e, Initial residual = 0.0589516, Final residual = 1.57491e-05, No Iterations 1
Min/max T:364.764 383.68

Solving for fluid region fluid
DILUPBiCGStab:  Solving for Ux, Initial residual = 0.00152157, Final residual = 6.52828e-05, No Iterations 1
DILUPBiCGStab:  Solving for Uy, Initial residual = 0.00265037, Final residual = 0.000112376, No Iterations 1
DILUPBiCGStab:  Solving for Uz, Initial residual = 0.00275615, Final residual = 0.00011616, No Iterations 1
DILUPBiCGStab:  Solving for h, Initial residual = 0.00219728, Final residual = 0.000148496, No Iterations 1
Min/max T:296.578 365.006
GAMG:  Solving for p_rgh, Initial residual = 0.00513267, Final residual = 2.15334e-05, No Iterations 3
GAMG:  Solving for p_rgh, Initial residual = 0.000783573, Final residual = 4.28709e-06, No Iterations 3
GAMG:  Solving for p_rgh, Initial residual = 0.000131787, Final residual = 1.02432e-06, No Iterations 3
time step continuity errors : sum local = 5.9985e-06, global = -1.06464e-06, cumulative = -1.06464e-06
ExecutionTime = 12.1732 s  ClockTime = 22 s

volFieldValue volAvgFinTemperature write:
    volAverage() of T = 363.719

volFieldValue volAvgHeaterTemperature write:
    volAverage() of T = 377.829

surfaceFieldValue averageTempHeaterFinInterface write:
    areaAverage(heater_to_fins) of T = 365.334

Region: fluid Courant Number mean: 1320.37 max: 40783.7
Region: fins Diffusion Number mean: 124.24 max: 149517
Region: heater Diffusion Number mean: 71.9582 max: 655.768
Time = 34s


Solving for solid region fins
GAMG:  Solving for e, Initial residual = 0.173053, Final residual = 0.00539302, No Iterations 1
Min/max T:362.276 367.553

Solving for solid region heater
GAMG:  Solving for e, Initial residual = 0.0584876, Final residual = 1.57705e-05, No Iterations 1
Min/max T:366.661 385.574

Solving for fluid region fluid
DILUPBiCGStab:  Solving for Ux, Initial residual = 0.0014972, Final residual = 6.41642e-05, No Iterations 1
DILUPBiCGStab:  Solving for Uy, Initial residual = 0.00259896, Final residual = 0.000110321, No Iterations 1
DILUPBiCGStab:  Solving for Uz, Initial residual = 0.00267613, Final residual = 0.000112612, No Iterations 1
DILUPBiCGStab:  Solving for h, Initial residual = 0.00213223, Final residual = 0.000142909, No Iterations 1
Min/max T:296.569 366.894
GAMG:  Solving for p_rgh, Initial residual = 0.00495635, Final residual = 2.13493e-05, No Iterations 3
GAMG:  Solving for p_rgh, Initial residual = 0.000754492, Final residual = 3.99617e-06, No Iterations 3
GAMG:  Solving for p_rgh, Initial residual = 0.000127814, Final residual = 9.58525e-07, No Iterations 3
time step continuity errors : sum local = 5.61701e-06, global = -9.96498e-07, cumulative = -9.96498e-07
ExecutionTime = 12.3394 s  ClockTime = 23 s

volFieldValue volAvgFinTemperature write:
    volAverage() of T = 365.568

volFieldValue volAvgHeaterTemperature write:
    volAverage() of T = 379.723

surfaceFieldValue averageTempHeaterFinInterface write:
    areaAverage(heater_to_fins) of T = 367.232

Region: fluid Courant Number mean: 1320.27 max: 40816.5
Region: fins Diffusion Number mean: 124.24 max: 149517
Region: heater Diffusion Number mean: 71.9582 max: 655.768
Time = 35s


Solving for solid region fins
GAMG:  Solving for e, Initial residual = 0.168257, Final residual = 0.00529701, No Iterations 1
Min/max T:364.072 369.437

Solving for solid region heater
GAMG:  Solving for e, Initial residual = 0.0580262, Final residual = 1.57723e-05, No Iterations 1
Min/max T:368.543 387.454

Solving for fluid region fluid
DILUPBiCGStab:  Solving for Ux, Initial residual = 0.00147308, Final residual = 6.30774e-05, No Iterations 1
DILUPBiCGStab:  Solving for Uy, Initial residual = 0.00255005, Final residual = 0.000108352, No Iterations 1
DILUPBiCGStab:  Solving for Uz, Initial residual = 0.00259808, Final residual = 0.00010912, No Iterations 1
DILUPBiCGStab:  Solving for h, Initial residual = 0.00207063, Final residual = 0.000137379, No Iterations 1
Min/max T:296.56 368.769
GAMG:  Solving for p_rgh, Initial residual = 0.00484854, Final residual = 2.10607e-05, No Iterations 3
GAMG:  Solving for p_rgh, Initial residual = 0.000734309, Final residual = 3.86173e-06, No Iterations 3
GAMG:  Solving for p_rgh, Initial residual = 0.000125176, Final residual = 9.26881e-07, No Iterations 3
time step continuity errors : sum local = 5.43525e-06, global = -9.60545e-07, cumulative = -9.60545e-07
ExecutionTime = 12.4938 s  ClockTime = 23 s

volFieldValue volAvgFinTemperature write:
    volAverage() of T = 367.402

volFieldValue volAvgHeaterTemperature write:
    volAverage() of T = 381.603

surfaceFieldValue averageTempHeaterFinInterface write:
    areaAverage(heater_to_fins) of T = 369.117

Region: fluid Courant Number mean: 1320.17 max: 40858.3
Region: fins Diffusion Number mean: 124.24 max: 149517
Region: heater Diffusion Number mean: 71.9582 max: 655.768
Time = 36s


Solving for solid region fins
GAMG:  Solving for e, Initial residual = 0.163628, Final residual = 0.00520772, No Iterations 1
Min/max T:365.854 371.307

Solving for solid region heater
GAMG:  Solving for e, Initial residual = 0.057566, Final residual = 1.57863e-05, No Iterations 1
Min/max T:370.411 389.32

Solving for fluid region fluid
DILUPBiCGStab:  Solving for Ux, Initial residual = 0.00144932, Final residual = 6.20167e-05, No Iterations 1
DILUPBiCGStab:  Solving for Uy, Initial residual = 0.00250254, Final residual = 0.000106467, No Iterations 1
DILUPBiCGStab:  Solving for Uz, Initial residual = 0.00252262, Final residual = 0.000105731, No Iterations 1
DILUPBiCGStab:  Solving for h, Initial residual = 0.00201195, Final residual = 0.000132014, No Iterations 1
Min/max T:296.551 370.629
GAMG:  Solving for p_rgh, Initial residual = 0.00472787, Final residual = 2.06203e-05, No Iterations 3
GAMG:  Solving for p_rgh, Initial residual = 0.000714446, Final residual = 3.75936e-06, No Iterations 3
GAMG:  Solving for p_rgh, Initial residual = 0.000122885, Final residual = 9.00507e-07, No Iterations 3
time step continuity errors : sum local = 5.28418e-06, global = -9.3018e-07, cumulative = -9.3018e-07
ExecutionTime = 12.6475 s  ClockTime = 23 s

volFieldValue volAvgFinTemperature write:
    volAverage() of T = 369.223

volFieldValue volAvgHeaterTemperature write:
    volAverage() of T = 383.469

surfaceFieldValue averageTempHeaterFinInterface write:
    areaAverage(heater_to_fins) of T = 370.988

Region: fluid Courant Number mean: 1320.07 max: 40907.2
Region: fins Diffusion Number mean: 124.24 max: 149517
Region: heater Diffusion Number mean: 71.9582 max: 655.768
Time = 37s


Solving for solid region fins
GAMG:  Solving for e, Initial residual = 0.159193, Final residual = 0.00511705, No Iterations 1
Min/max T:367.621 373.163

Solving for solid region heater
GAMG:  Solving for e, Initial residual = 0.0571084, Final residual = 1.57886e-05, No Iterations 1
Min/max T:372.265 391.173

Solving for fluid region fluid
DILUPBiCGStab:  Solving for Ux, Initial residual = 0.00142613, Final residual = 6.09974e-05, No Iterations 1
DILUPBiCGStab:  Solving for Uy, Initial residual = 0.00245765, Final residual = 0.000104649, No Iterations 1
DILUPBiCGStab:  Solving for Uz, Initial residual = 0.00244923, Final residual = 0.000102412, No Iterations 1
DILUPBiCGStab:  Solving for h, Initial residual = 0.00195544, Final residual = 0.000126861, No Iterations 1
Min/max T:296.542 372.477
GAMG:  Solving for p_rgh, Initial residual = 0.00466172, Final residual = 2.02628e-05, No Iterations 3
GAMG:  Solving for p_rgh, Initial residual = 0.000700652, Final residual = 3.65754e-06, No Iterations 3
GAMG:  Solving for p_rgh, Initial residual = 0.000121288, Final residual = 8.76731e-07, No Iterations 3
time step continuity errors : sum local = 5.14809e-06, global = -9.02019e-07, cumulative = -9.02019e-07
ExecutionTime = 12.8036 s  ClockTime = 24 s

volFieldValue volAvgFinTemperature write:
    volAverage() of T = 371.029

volFieldValue volAvgHeaterTemperature write:
    volAverage() of T = 385.321

surfaceFieldValue averageTempHeaterFinInterface write:
    areaAverage(heater_to_fins) of T = 372.844

Region: fluid Courant Number mean: 1319.97 max: 40961.5
Region: fins Diffusion Number mean: 124.24 max: 149517
Region: heater Diffusion Number mean: 71.9582 max: 655.768
Time = 38s


Solving for solid region fins
GAMG:  Solving for e, Initial residual = 0.154927, Final residual = 0.00502132, No Iterations 1
Min/max T:369.373 375.006

Solving for solid region heater
GAMG:  Solving for e, Initial residual = 0.0566544, Final residual = 1.57705e-05, No Iterations 1
Min/max T:374.105 393.011

Solving for fluid region fluid
DILUPBiCGStab:  Solving for Ux, Initial residual = 0.00140357, Final residual = 6.00142e-05, No Iterations 1
DILUPBiCGStab:  Solving for Uy, Initial residual = 0.00241522, Final residual = 0.000102901, No Iterations 1
DILUPBiCGStab:  Solving for Uz, Initial residual = 0.00237786, Final residual = 9.91636e-05, No Iterations 1
DILUPBiCGStab:  Solving for h, Initial residual = 0.00190076, Final residual = 0.00012196, No Iterations 1
Min/max T:296.533 374.311
GAMG:  Solving for p_rgh, Initial residual = 0.0045961, Final residual = 1.99755e-05, No Iterations 3
GAMG:  Solving for p_rgh, Initial residual = 0.000686391, Final residual = 3.57659e-06, No Iterations 3
GAMG:  Solving for p_rgh, Initial residual = 0.000119334, Final residual = 8.56178e-07, No Iterations 3
time step continuity errors : sum local = 5.03066e-06, global = -8.78494e-07, cumulative = -8.78494e-07
ExecutionTime = 12.9661 s  ClockTime = 24 s

volFieldValue volAvgFinTemperature write:
    volAverage() of T = 372.822

volFieldValue volAvgHeaterTemperature write:
    volAverage() of T = 387.159

surfaceFieldValue averageTempHeaterFinInterface write:
    areaAverage(heater_to_fins) of T = 374.687

Region: fluid Courant Number mean: 1319.87 max: 41019.8
Region: fins Diffusion Number mean: 124.24 max: 149517
Region: heater Diffusion Number mean: 71.9582 max: 655.768
Time = 39s


Solving for solid region fins
GAMG:  Solving for e, Initial residual = 0.150826, Final residual = 0.00492326, No Iterations 1
Min/max T:371.111 376.834

Solving for solid region heater
GAMG:  Solving for e, Initial residual = 0.0562042, Final residual = 1.57416e-05, No Iterations 1
Min/max T:375.932 394.836

Solving for fluid region fluid
DILUPBiCGStab:  Solving for Ux, Initial residual = 0.0013814, Final residual = 5.90544e-05, No Iterations 1
DILUPBiCGStab:  Solving for Uy, Initial residual = 0.00237546, Final residual = 0.000101214, No Iterations 1
DILUPBiCGStab:  Solving for Uz, Initial residual = 0.00230928, Final residual = 9.60129e-05, No Iterations 1
DILUPBiCGStab:  Solving for h, Initial residual = 0.00184835, Final residual = 0.000117203, No Iterations 1
Min/max T:296.524 376.131
GAMG:  Solving for p_rgh, Initial residual = 0.00451765, Final residual = 1.93692e-05, No Iterations 3
GAMG:  Solving for p_rgh, Initial residual = 0.000678717, Final residual = 3.53989e-06, No Iterations 3
GAMG:  Solving for p_rgh, Initial residual = 0.000117425, Final residual = 8.45923e-07, No Iterations 3
time step continuity errors : sum local = 4.97394e-06, global = -8.63356e-07, cumulative = -8.63356e-07
ExecutionTime = 13.1356 s  ClockTime = 24 s

volFieldValue volAvgFinTemperature write:
    volAverage() of T = 374.601

volFieldValue volAvgHeaterTemperature write:
    volAverage() of T = 388.984

surfaceFieldValue averageTempHeaterFinInterface write:
    areaAverage(heater_to_fins) of T = 376.516

Region: fluid Courant Number mean: 1319.77 max: 41081
Region: fins Diffusion Number mean: 124.24 max: 149517
Region: heater Diffusion Number mean: 71.9582 max: 655.768
Time = 40s


Solving for solid region fins
GAMG:  Solving for e, Initial residual = 0.146886, Final residual = 0.0048246, No Iterations 1
Min/max T:372.836 378.649

Solving for solid region heater
GAMG:  Solving for e, Initial residual = 0.0557576, Final residual = 1.57056e-05, No Iterations 1
Min/max T:377.745 396.647

Solving for fluid region fluid
DILUPBiCGStab:  Solving for Ux, Initial residual = 0.00135985, Final residual = 5.81037e-05, No Iterations 1
DILUPBiCGStab:  Solving for Uy, Initial residual = 0.00233718, Final residual = 9.95638e-05, No Iterations 1
DILUPBiCGStab:  Solving for Uz, Initial residual = 0.00224308, Final residual = 9.30056e-05, No Iterations 1
DILUPBiCGStab:  Solving for h, Initial residual = 0.00179685, Final residual = 0.000112368, No Iterations 1
Min/max T:296.515 377.938
GAMG:  Solving for p_rgh, Initial residual = 0.00443088, Final residual = 1.9415e-05, No Iterations 3
GAMG:  Solving for p_rgh, Initial residual = 0.00066731, Final residual = 3.50308e-06, No Iterations 3
GAMG:  Solving for p_rgh, Initial residual = 0.00011505, Final residual = 8.39548e-07, No Iterations 3
time step continuity errors : sum local = 4.93954e-06, global = -8.46544e-07, cumulative = -8.46544e-07
ExecutionTime = 13.3101 s  ClockTime = 25 s

volFieldValue volAvgFinTemperature write:
    volAverage() of T = 376.366

volFieldValue volAvgHeaterTemperature write:
    volAverage() of T = 390.795

surfaceFieldValue averageTempHeaterFinInterface write:
    areaAverage(heater_to_fins) of T = 378.332

Region: fluid Courant Number mean: 1319.67 max: 41144.1
Region: fins Diffusion Number mean: 124.24 max: 149517
Region: heater Diffusion Number mean: 71.9582 max: 655.768
Time = 41s


Solving for solid region fins
GAMG:  Solving for e, Initial residual = 0.143101, Final residual = 0.0047257, No Iterations 1
Min/max T:374.547 380.451

Solving for solid region heater
GAMG:  Solving for e, Initial residual = 0.0553146, Final residual = 1.56614e-05, No Iterations 1
Min/max T:379.544 398.445

Solving for fluid region fluid
DILUPBiCGStab:  Solving for Ux, Initial residual = 0.00133865, Final residual = 5.7171e-05, No Iterations 1
DILUPBiCGStab:  Solving for Uy, Initial residual = 0.00229942, Final residual = 9.79535e-05, No Iterations 1
DILUPBiCGStab:  Solving for Uz, Initial residual = 0.00217901, Final residual = 9.01008e-05, No Iterations 1
DILUPBiCGStab:  Solving for h, Initial residual = 0.00174694, Final residual = 0.000107719, No Iterations 1
Min/max T:296.506 379.731
GAMG:  Solving for p_rgh, Initial residual = 0.00435703, Final residual = 1.89655e-05, No Iterations 3
GAMG:  Solving for p_rgh, Initial residual = 0.0006563, Final residual = 3.43119e-06, No Iterations 3
GAMG:  Solving for p_rgh, Initial residual = 0.000112896, Final residual = 8.23946e-07, No Iterations 3
time step continuity errors : sum local = 4.85118e-06, global = -8.36502e-07, cumulative = -8.36502e-07
ExecutionTime = 13.4865 s  ClockTime = 25 s

volFieldValue volAvgFinTemperature write:
    volAverage() of T = 378.118

volFieldValue volAvgHeaterTemperature write:
    volAverage() of T = 392.592

surfaceFieldValue averageTempHeaterFinInterface write:
    areaAverage(heater_to_fins) of T = 380.134

Region: fluid Courant Number mean: 1319.58 max: 41208.1
Region: fins Diffusion Number mean: 124.24 max: 149517
Region: heater Diffusion Number mean: 71.9582 max: 655.768
Time = 42s


Solving for solid region fins
GAMG:  Solving for e, Initial residual = 0.139464, Final residual = 0.00462569, No Iterations 1
Min/max T:376.244 382.239

Solving for solid region heater
GAMG:  Solving for e, Initial residual = 0.0548756, Final residual = 1.56047e-05, No Iterations 1
Min/max T:381.33 400.229

Solving for fluid region fluid
DILUPBiCGStab:  Solving for Ux, Initial residual = 0.00131788, Final residual = 5.62564e-05, No Iterations 1
DILUPBiCGStab:  Solving for Uy, Initial residual = 0.0022626, Final residual = 9.63663e-05, No Iterations 1
DILUPBiCGStab:  Solving for Uz, Initial residual = 0.00211651, Final residual = 8.72822e-05, No Iterations 1
DILUPBiCGStab:  Solving for h, Initial residual = 0.00169854, Final residual = 0.000103275, No Iterations 1
Min/max T:296.497 381.511
GAMG:  Solving for p_rgh, Initial residual = 0.00428748, Final residual = 1.8474e-05, No Iterations 3
GAMG:  Solving for p_rgh, Initial residual = 0.000646528, Final residual = 3.36282e-06, No Iterations 3
GAMG:  Solving for p_rgh, Initial residual = 0.000110624, Final residual = 8.09104e-07, No Iterations 3
time step continuity errors : sum local = 4.76733e-06, global = -8.23452e-07, cumulative = -8.23452e-07
ExecutionTime = 13.6445 s  ClockTime = 25 s

volFieldValue volAvgFinTemperature write:
    volAverage() of T = 379.857

volFieldValue volAvgHeaterTemperature write:
    volAverage() of T = 394.376

surfaceFieldValue averageTempHeaterFinInterface write:
    areaAverage(heater_to_fins) of T = 381.922

Region: fluid Courant Number mean: 1319.48 max: 41272.4
Region: fins Diffusion Number mean: 124.24 max: 149517
Region: heater Diffusion Number mean: 71.9582 max: 655.768
Time = 43s


Solving for solid region fins
GAMG:  Solving for e, Initial residual = 0.135969, Final residual = 0.0045256, No Iterations 1
Min/max T:377.928 384.014

Solving for solid region heater
GAMG:  Solving for e, Initial residual = 0.0544408, Final residual = 1.55371e-05, No Iterations 1
Min/max T:383.102 402

Solving for fluid region fluid
DILUPBiCGStab:  Solving for Ux, Initial residual = 0.00129756, Final residual = 5.5363e-05, No Iterations 1
DILUPBiCGStab:  Solving for Uy, Initial residual = 0.00222711, Final residual = 9.47688e-05, No Iterations 1
DILUPBiCGStab:  Solving for Uz, Initial residual = 0.00205655, Final residual = 8.46078e-05, No Iterations 1
DILUPBiCGStab:  Solving for h, Initial residual = 0.00165213, Final residual = 9.90018e-05, No Iterations 1
Min/max T:296.489 383.277
GAMG:  Solving for p_rgh, Initial residual = 0.00422738, Final residual = 1.79973e-05, No Iterations 3
GAMG:  Solving for p_rgh, Initial residual = 0.000638454, Final residual = 3.31502e-06, No Iterations 3
GAMG:  Solving for p_rgh, Initial residual = 0.00010846, Final residual = 7.98567e-07, No Iterations 3
time step continuity errors : sum local = 4.70874e-06, global = -8.17512e-07, cumulative = -8.17512e-07
ExecutionTime = 13.8061 s  ClockTime = 25 s

volFieldValue volAvgFinTemperature write:
    volAverage() of T = 381.583

volFieldValue volAvgHeaterTemperature write:
    volAverage() of T = 396.147

surfaceFieldValue averageTempHeaterFinInterface write:
    areaAverage(heater_to_fins) of T = 383.697

Region: fluid Courant Number mean: 1319.39 max: 41336.3
Region: fins Diffusion Number mean: 124.24 max: 149517
Region: heater Diffusion Number mean: 71.9582 max: 655.768
Time = 44s


Solving for solid region fins
GAMG:  Solving for e, Initial residual = 0.132607, Final residual = 0.00442547, No Iterations 1
Min/max T:379.599 385.775

Solving for solid region heater
GAMG:  Solving for e, Initial residual = 0.0540101, Final residual = 1.54585e-05, No Iterations 1
Min/max T:384.861 403.757

Solving for fluid region fluid
DILUPBiCGStab:  Solving for Ux, Initial residual = 0.00127757, Final residual = 5.44764e-05, No Iterations 1
DILUPBiCGStab:  Solving for Uy, Initial residual = 0.00219197, Final residual = 9.32083e-05, No Iterations 1
DILUPBiCGStab:  Solving for Uz, Initial residual = 0.00199823, Final residual = 8.20354e-05, No Iterations 1
DILUPBiCGStab:  Solving for h, Initial residual = 0.00160762, Final residual = 9.48502e-05, No Iterations 1
Min/max T:296.48 385.031
GAMG:  Solving for p_rgh, Initial residual = 0.00417811, Final residual = 1.76049e-05, No Iterations 3
GAMG:  Solving for p_rgh, Initial residual = 0.000633143, Final residual = 3.3143e-06, No Iterations 3
GAMG:  Solving for p_rgh, Initial residual = 0.00010676, Final residual = 7.95737e-07, No Iterations 3
time step continuity errors : sum local = 4.69556e-06, global = -8.18549e-07, cumulative = -8.18549e-07
ExecutionTime = 13.9651 s  ClockTime = 26 s

volFieldValue volAvgFinTemperature write:
    volAverage() of T = 383.296

volFieldValue volAvgHeaterTemperature write:
    volAverage() of T = 397.904

surfaceFieldValue averageTempHeaterFinInterface write:
    areaAverage(heater_to_fins) of T = 385.459

Region: fluid Courant Number mean: 1319.29 max: 41399.3
Region: fins Diffusion Number mean: 124.24 max: 149517
Region: heater Diffusion Number mean: 71.9582 max: 655.768
Time = 45s


Solving for solid region fins
GAMG:  Solving for e, Initial residual = 0.129378, Final residual = 0.00432528, No Iterations 1
Min/max T:381.257 387.524

Solving for solid region heater
GAMG:  Solving for e, Initial residual = 0.0535838, Final residual = 1.53679e-05, No Iterations 1
Min/max T:386.608 405.502

Solving for fluid region fluid
DILUPBiCGStab:  Solving for Ux, Initial residual = 0.00125774, Final residual = 5.36059e-05, No Iterations 1
DILUPBiCGStab:  Solving for Uy, Initial residual = 0.00215727, Final residual = 9.16603e-05, No Iterations 1
DILUPBiCGStab:  Solving for Uz, Initial residual = 0.00194325, Final residual = 7.95863e-05, No Iterations 1
DILUPBiCGStab:  Solving for h, Initial residual = 0.0015648, Final residual = 9.093e-05, No Iterations 1
Min/max T:296.471 386.772
GAMG:  Solving for p_rgh, Initial residual = 0.00415657, Final residual = 1.72786e-05, No Iterations 3
GAMG:  Solving for p_rgh, Initial residual = 0.000630789, Final residual = 3.38112e-06, No Iterations 3
[...]

Solving for fluid region fluid
DILUPBiCGStab:  Solving for Ux, Initial residual = 3.72043e-10, Final residual = 3.72043e-10, No Iterations 0
DILUPBiCGStab:  Solving for Uy, Initial residual = 1.78988e-09, Final residual = 1.78988e-09, No Iterations 0
DILUPBiCGStab:  Solving for Uz, Initial residual = 1.46194e-09, Final residual = 1.46194e-09, No Iterations 0
DILUPBiCGStab:  Solving for h, Initial residual = 0.000467654, Final residual = 1.57102e-05, No Iterations 1
Min/max T:295.309 616.3
GAMG:  Solving for p_rgh, Initial residual = 1.16668e-07, Final residual = 1.0121e-08, No Iterations 1
GAMG:  Solving for p_rgh, Initial residual = 6.18292e-08, Final residual = 6.18292e-08, No Iterations 0
GAMG:  Solving for p_rgh, Initial residual = 6.18292e-08, Final residual = 6.18292e-08, No Iterations 0
time step continuity errors : sum local = 4.15426e-07, global = 2.59698e-11, cumulative = 2.59698e-11
ExecutionTime = 397.259 s  ClockTime = 746 s

volFieldValue volAvgFinTemperature write:
    volAverage() of T = 608.763

volFieldValue volAvgHeaterTemperature write:
    volAverage() of T = 629.42

surfaceFieldValue averageTempHeaterFinInterface write:
    areaAverage(heater_to_fins) of T = 617.551

Region: fluid Courant Number mean: 1311.98 max: 38225.3
Region: fins Diffusion Number mean: 124.24 max: 149517
Region: heater Diffusion Number mean: 71.9582 max: 655.768
Time = 1990s


Solving for solid region fins
GAMG:  Solving for e, Initial residual = 9.95128e-07, Final residual = 9.95128e-07, No Iterations 0
Min/max T:599.091 618.759

Solving for solid region heater
GAMG:  Solving for e, Initial residual = 4.5592e-07, Final residual = 4.5592e-07, No Iterations 0
Min/max T:614.896 635.322

Solving for fluid region fluid
DILUPBiCGStab:  Solving for Ux, Initial residual = 8.20235e-10, Final residual = 8.20235e-10, No Iterations 0
DILUPBiCGStab:  Solving for Uy, Initial residual = 3.74009e-09, Final residual = 3.74009e-09, No Iterations 0
DILUPBiCGStab:  Solving for Uz, Initial residual = 3.38711e-09, Final residual = 3.38711e-09, No Iterations 0
DILUPBiCGStab:  Solving for h, Initial residual = 0.000467655, Final residual = 1.571e-05, No Iterations 1
Min/max T:295.309 616.3
GAMG:  Solving for p_rgh, Initial residual = 1.14953e-07, Final residual = 7.4155e-09, No Iterations 1
GAMG:  Solving for p_rgh, Initial residual = 6.87465e-08, Final residual = 6.87465e-08, No Iterations 0
GAMG:  Solving for p_rgh, Initial residual = 6.87465e-08, Final residual = 6.87465e-08, No Iterations 0
time step continuity errors : sum local = 4.61903e-07, global = 3.24776e-10, cumulative = 3.24776e-10
ExecutionTime = 397.591 s  ClockTime = 746 s

volFieldValue volAvgFinTemperature write:
    volAverage() of T = 608.763

volFieldValue volAvgHeaterTemperature write:
    volAverage() of T = 629.42

surfaceFieldValue averageTempHeaterFinInterface write:
    areaAverage(heater_to_fins) of T = 617.551

Region: fluid Courant Number mean: 1311.98 max: 38225.3
Region: fins Diffusion Number mean: 124.24 max: 149517
Region: heater Diffusion Number mean: 71.9582 max: 655.768
Time = 1991s


Solving for solid region fins
GAMG:  Solving for e, Initial residual = 9.95009e-07, Final residual = 9.95009e-07, No Iterations 0
Min/max T:599.091 618.759

Solving for solid region heater
GAMG:  Solving for e, Initial residual = 4.5592e-07, Final residual = 4.5592e-07, No Iterations 0
Min/max T:614.896 635.322

Solving for fluid region fluid
DILUPBiCGStab:  Solving for Ux, Initial residual = 5.14657e-10, Final residual = 5.14657e-10, No Iterations 0
DILUPBiCGStab:  Solving for Uy, Initial residual = 2.52639e-09, Final residual = 2.52639e-09, No Iterations 0
DILUPBiCGStab:  Solving for Uz, Initial residual = 2.21041e-09, Final residual = 2.21041e-09, No Iterations 0
DILUPBiCGStab:  Solving for h, Initial residual = 0.000467654, Final residual = 1.57102e-05, No Iterations 1
Min/max T:295.309 616.3
GAMG:  Solving for p_rgh, Initial residual = 9.83207e-08, Final residual = 9.83207e-08, No Iterations 0
GAMG:  Solving for p_rgh, Initial residual = 9.83207e-08, Final residual = 9.83207e-08, No Iterations 0
GAMG:  Solving for p_rgh, Initial residual = 9.83207e-08, Final residual = 9.83207e-08, No Iterations 0
time step continuity errors : sum local = 6.6061e-07, global = 6.23315e-10, cumulative = 6.23315e-10
ExecutionTime = 397.794 s  ClockTime = 747 s

volFieldValue volAvgFinTemperature write:
    volAverage() of T = 608.763

volFieldValue volAvgHeaterTemperature write:
    volAverage() of T = 629.42

surfaceFieldValue averageTempHeaterFinInterface write:
    areaAverage(heater_to_fins) of T = 617.551

Region: fluid Courant Number mean: 1311.98 max: 38225.3
Region: fins Diffusion Number mean: 124.24 max: 149517
Region: heater Diffusion Number mean: 71.9582 max: 655.768
Time = 1992s


Solving for solid region fins
GAMG:  Solving for e, Initial residual = 9.94933e-07, Final residual = 9.94933e-07, No Iterations 0
Min/max T:599.091 618.759

Solving for solid region heater
GAMG:  Solving for e, Initial residual = 4.5592e-07, Final residual = 4.5592e-07, No Iterations 0
Min/max T:614.896 635.322

Solving for fluid region fluid
DILUPBiCGStab:  Solving for Ux, Initial residual = 4.89972e-10, Final residual = 4.89972e-10, No Iterations 0
DILUPBiCGStab:  Solving for Uy, Initial residual = 2.33466e-09, Final residual = 2.33466e-09, No Iterations 0
DILUPBiCGStab:  Solving for Uz, Initial residual = 1.94486e-09, Final residual = 1.94486e-09, No Iterations 0
DILUPBiCGStab:  Solving for h, Initial residual = 0.000467654, Final residual = 1.57102e-05, No Iterations 1
Min/max T:295.309 616.3
GAMG:  Solving for p_rgh, Initial residual = 1.29626e-07, Final residual = 8.26495e-09, No Iterations 1
GAMG:  Solving for p_rgh, Initial residual = 8.37498e-08, Final residual = 8.37498e-08, No Iterations 0
GAMG:  Solving for p_rgh, Initial residual = 8.37498e-08, Final residual = 8.37498e-08, No Iterations 0
time step continuity errors : sum local = 5.62709e-07, global = 6.8784e-10, cumulative = 6.8784e-10
ExecutionTime = 397.964 s  ClockTime = 747 s

volFieldValue volAvgFinTemperature write:
    volAverage() of T = 608.763

volFieldValue volAvgHeaterTemperature write:
    volAverage() of T = 629.42

surfaceFieldValue averageTempHeaterFinInterface write:
    areaAverage(heater_to_fins) of T = 617.551

Region: fluid Courant Number mean: 1311.98 max: 38225.3
Region: fins Diffusion Number mean: 124.24 max: 149517
Region: heater Diffusion Number mean: 71.9582 max: 655.768
Time = 1993s


Solving for solid region fins
GAMG:  Solving for e, Initial residual = 9.95012e-07, Final residual = 9.95012e-07, No Iterations 0
Min/max T:599.091 618.759

Solving for solid region heater
GAMG:  Solving for e, Initial residual = 4.5592e-07, Final residual = 4.5592e-07, No Iterations 0
Min/max T:614.896 635.322

Solving for fluid region fluid
DILUPBiCGStab:  Solving for Ux, Initial residual = 8.81088e-10, Final residual = 8.81088e-10, No Iterations 0
DILUPBiCGStab:  Solving for Uy, Initial residual = 3.913e-09, Final residual = 3.913e-09, No Iterations 0
DILUPBiCGStab:  Solving for Uz, Initial residual = 3.26478e-09, Final residual = 3.26478e-09, No Iterations 0
DILUPBiCGStab:  Solving for h, Initial residual = 0.000467656, Final residual = 1.57099e-05, No Iterations 1
Min/max T:295.309 616.3
GAMG:  Solving for p_rgh, Initial residual = 1.40247e-07, Final residual = 7.13698e-09, No Iterations 1
GAMG:  Solving for p_rgh, Initial residual = 9.81798e-08, Final residual = 9.81798e-08, No Iterations 0
GAMG:  Solving for p_rgh, Initial residual = 9.81798e-08, Final residual = 9.81798e-08, No Iterations 0
time step continuity errors : sum local = 6.59663e-07, global = 6.04438e-10, cumulative = 6.04438e-10
ExecutionTime = 398.132 s  ClockTime = 747 s

volFieldValue volAvgFinTemperature write:
    volAverage() of T = 608.763

volFieldValue volAvgHeaterTemperature write:
    volAverage() of T = 629.42

surfaceFieldValue averageTempHeaterFinInterface write:
    areaAverage(heater_to_fins) of T = 617.551

Region: fluid Courant Number mean: 1311.98 max: 38225.3
Region: fins Diffusion Number mean: 124.24 max: 149517
Region: heater Diffusion Number mean: 71.9582 max: 655.768
Time = 1994s


Solving for solid region fins
GAMG:  Solving for e, Initial residual = 9.94929e-07, Final residual = 9.94929e-07, No Iterations 0
Min/max T:599.091 618.759

Solving for solid region heater
GAMG:  Solving for e, Initial residual = 4.5592e-07, Final residual = 4.5592e-07, No Iterations 0
Min/max T:614.896 635.322

Solving for fluid region fluid
DILUPBiCGStab:  Solving for Ux, Initial residual = 6.81872e-10, Final residual = 6.81872e-10, No Iterations 0
DILUPBiCGStab:  Solving for Uy, Initial residual = 3.06606e-09, Final residual = 3.06606e-09, No Iterations 0
DILUPBiCGStab:  Solving for Uz, Initial residual = 2.74568e-09, Final residual = 2.74568e-09, No Iterations 0
DILUPBiCGStab:  Solving for h, Initial residual = 0.000467653, Final residual = 1.57103e-05, No Iterations 1
Min/max T:295.309 616.3
GAMG:  Solving for p_rgh, Initial residual = 1.3743e-07, Final residual = 5.70627e-09, No Iterations 1
GAMG:  Solving for p_rgh, Initial residual = 9.11217e-08, Final residual = 9.11217e-08, No Iterations 0
GAMG:  Solving for p_rgh, Initial residual = 9.11217e-08, Final residual = 9.11217e-08, No Iterations 0
time step continuity errors : sum local = 6.1224e-07, global = 3.61595e-10, cumulative = 3.61595e-10
ExecutionTime = 398.283 s  ClockTime = 748 s

volFieldValue volAvgFinTemperature write:
    volAverage() of T = 608.763

volFieldValue volAvgHeaterTemperature write:
    volAverage() of T = 629.42

surfaceFieldValue averageTempHeaterFinInterface write:
    areaAverage(heater_to_fins) of T = 617.551

Region: fluid Courant Number mean: 1311.98 max: 38225.3
Region: fins Diffusion Number mean: 124.24 max: 149517
Region: heater Diffusion Number mean: 71.9582 max: 655.768
Time = 1995s


Solving for solid region fins
GAMG:  Solving for e, Initial residual = 9.94842e-07, Final residual = 9.94842e-07, No Iterations 0
Min/max T:599.091 618.759

Solving for solid region heater
GAMG:  Solving for e, Initial residual = 4.5592e-07, Final residual = 4.5592e-07, No Iterations 0
Min/max T:614.896 635.322

Solving for fluid region fluid
DILUPBiCGStab:  Solving for Ux, Initial residual = 7.21818e-10, Final residual = 7.21818e-10, No Iterations 0
DILUPBiCGStab:  Solving for Uy, Initial residual = 3.30276e-09, Final residual = 3.30276e-09, No Iterations 0
DILUPBiCGStab:  Solving for Uz, Initial residual = 2.62286e-09, Final residual = 2.62286e-09, No Iterations 0
DILUPBiCGStab:  Solving for h, Initial residual = 0.000467656, Final residual = 1.57098e-05, No Iterations 1
Min/max T:295.309 616.3
GAMG:  Solving for p_rgh, Initial residual = 1.37108e-07, Final residual = 5.97819e-09, No Iterations 1
GAMG:  Solving for p_rgh, Initial residual = 9.93296e-08, Final residual = 9.93296e-08, No Iterations 0
GAMG:  Solving for p_rgh, Initial residual = 9.93296e-08, Final residual = 9.93296e-08, No Iterations 0
time step continuity errors : sum local = 6.67389e-07, global = 8.16363e-11, cumulative = 8.16363e-11
ExecutionTime = 398.42 s  ClockTime = 748 s

volFieldValue volAvgFinTemperature write:
    volAverage() of T = 608.763

volFieldValue volAvgHeaterTemperature write:
    volAverage() of T = 629.42

surfaceFieldValue averageTempHeaterFinInterface write:
    areaAverage(heater_to_fins) of T = 617.551

Region: fluid Courant Number mean: 1311.98 max: 38225.3
Region: fins Diffusion Number mean: 124.24 max: 149517
Region: heater Diffusion Number mean: 71.9582 max: 655.768
Time = 1996s


Solving for solid region fins
GAMG:  Solving for e, Initial residual = 9.94909e-07, Final residual = 9.94909e-07, No Iterations 0
Min/max T:599.091 618.759

Solving for solid region heater
GAMG:  Solving for e, Initial residual = 4.5592e-07, Final residual = 4.5592e-07, No Iterations 0
Min/max T:614.896 635.322

Solving for fluid region fluid
DILUPBiCGStab:  Solving for Ux, Initial residual = 7.2172e-10, Final residual = 7.2172e-10, No Iterations 0
DILUPBiCGStab:  Solving for Uy, Initial residual = 3.17384e-09, Final residual = 3.17384e-09, No Iterations 0
DILUPBiCGStab:  Solving for Uz, Initial residual = 2.69439e-09, Final residual = 2.69439e-09, No Iterations 0
DILUPBiCGStab:  Solving for h, Initial residual = 0.000467653, Final residual = 1.57104e-05, No Iterations 1
Min/max T:295.309 616.3
GAMG:  Solving for p_rgh, Initial residual = 1.40472e-07, Final residual = 5.92532e-09, No Iterations 1
GAMG:  Solving for p_rgh, Initial residual = 1.06093e-07, Final residual = 3.80785e-09, No Iterations 1
GAMG:  Solving for p_rgh, Initial residual = 4.67066e-08, Final residual = 4.67066e-08, No Iterations 0
time step continuity errors : sum local = 3.13818e-07, global = -1.34307e-10, cumulative = -1.34307e-10
ExecutionTime = 398.539 s  ClockTime = 748 s

volFieldValue volAvgFinTemperature write:
    volAverage() of T = 608.763

volFieldValue volAvgHeaterTemperature write:
    volAverage() of T = 629.42

surfaceFieldValue averageTempHeaterFinInterface write:
    areaAverage(heater_to_fins) of T = 617.551

Region: fluid Courant Number mean: 1311.98 max: 38225.3
Region: fins Diffusion Number mean: 124.24 max: 149517
Region: heater Diffusion Number mean: 71.9582 max: 655.768
Time = 1997s


Solving for solid region fins
GAMG:  Solving for e, Initial residual = 9.94789e-07, Final residual = 9.94789e-07, No Iterations 0
Min/max T:599.091 618.759

Solving for solid region heater
GAMG:  Solving for e, Initial residual = 4.5592e-07, Final residual = 4.5592e-07, No Iterations 0
Min/max T:614.896 635.322

Solving for fluid region fluid
DILUPBiCGStab:  Solving for Ux, Initial residual = 3.64661e-10, Final residual = 3.64661e-10, No Iterations 0
DILUPBiCGStab:  Solving for Uy, Initial residual = 1.46387e-09, Final residual = 1.46387e-09, No Iterations 0
DILUPBiCGStab:  Solving for Uz, Initial residual = 1.34152e-09, Final residual = 1.34152e-09, No Iterations 0
DILUPBiCGStab:  Solving for h, Initial residual = 0.000467655, Final residual = 1.57102e-05, No Iterations 1
Min/max T:295.309 616.3
GAMG:  Solving for p_rgh, Initial residual = 5.83745e-08, Final residual = 5.83745e-08, No Iterations 0
GAMG:  Solving for p_rgh, Initial residual = 5.83745e-08, Final residual = 5.83745e-08, No Iterations 0
GAMG:  Solving for p_rgh, Initial residual = 5.83745e-08, Final residual = 5.83745e-08, No Iterations 0
time step continuity errors : sum local = 3.92214e-07, global = -3.48562e-10, cumulative = -3.48562e-10
ExecutionTime = 398.659 s  ClockTime = 749 s

volFieldValue volAvgFinTemperature write:
    volAverage() of T = 608.763

volFieldValue volAvgHeaterTemperature write:
    volAverage() of T = 629.42

surfaceFieldValue averageTempHeaterFinInterface write:
    areaAverage(heater_to_fins) of T = 617.551

Region: fluid Courant Number mean: 1311.98 max: 38225.3
Region: fins Diffusion Number mean: 124.24 max: 149517
Region: heater Diffusion Number mean: 71.9582 max: 655.768
Time = 1998s


Solving for solid region fins
GAMG:  Solving for e, Initial residual = 9.94912e-07, Final residual = 9.94912e-07, No Iterations 0
Min/max T:599.091 618.759

Solving for solid region heater
GAMG:  Solving for e, Initial residual = 4.5592e-07, Final residual = 4.5592e-07, No Iterations 0
Min/max T:614.896 635.322

Solving for fluid region fluid
DILUPBiCGStab:  Solving for Ux, Initial residual = 3.45141e-10, Final residual = 3.45141e-10, No Iterations 0
DILUPBiCGStab:  Solving for Uy, Initial residual = 1.2688e-09, Final residual = 1.2688e-09, No Iterations 0
DILUPBiCGStab:  Solving for Uz, Initial residual = 1.16014e-09, Final residual = 1.16014e-09, No Iterations 0
DILUPBiCGStab:  Solving for h, Initial residual = 0.000467654, Final residual = 1.57103e-05, No Iterations 1
Min/max T:295.309 616.3
GAMG:  Solving for p_rgh, Initial residual = 7.23651e-08, Final residual = 7.23651e-08, No Iterations 0
GAMG:  Solving for p_rgh, Initial residual = 7.23651e-08, Final residual = 7.23651e-08, No Iterations 0
GAMG:  Solving for p_rgh, Initial residual = 7.23651e-08, Final residual = 7.23651e-08, No Iterations 0
time step continuity errors : sum local = 4.86216e-07, global = -5.66506e-10, cumulative = -5.66506e-10
ExecutionTime = 398.797 s  ClockTime = 749 s

volFieldValue volAvgFinTemperature write:
    volAverage() of T = 608.763

volFieldValue volAvgHeaterTemperature write:
    volAverage() of T = 629.42

surfaceFieldValue averageTempHeaterFinInterface write:
    areaAverage(heater_to_fins) of T = 617.551

Region: fluid Courant Number mean: 1311.98 max: 38225.3
Region: fins Diffusion Number mean: 124.24 max: 149517
Region: heater Diffusion Number mean: 71.9582 max: 655.768
Time = 1999s


Solving for solid region fins
GAMG:  Solving for e, Initial residual = 9.94932e-07, Final residual = 9.94932e-07, No Iterations 0
Min/max T:599.091 618.759

Solving for solid region heater
GAMG:  Solving for e, Initial residual = 4.5592e-07, Final residual = 4.5592e-07, No Iterations 0
Min/max T:614.896 635.322

Solving for fluid region fluid
DILUPBiCGStab:  Solving for Ux, Initial residual = 3.31682e-10, Final residual = 3.31682e-10, No Iterations 0
DILUPBiCGStab:  Solving for Uy, Initial residual = 1.23358e-09, Final residual = 1.23358e-09, No Iterations 0
DILUPBiCGStab:  Solving for Uz, Initial residual = 1.05742e-09, Final residual = 1.05742e-09, No Iterations 0
DILUPBiCGStab:  Solving for h, Initial residual = 0.000467654, Final residual = 1.57102e-05, No Iterations 1
Min/max T:295.309 616.3
GAMG:  Solving for p_rgh, Initial residual = 8.30471e-08, Final residual = 8.30471e-08, No Iterations 0
GAMG:  Solving for p_rgh, Initial residual = 8.30471e-08, Final residual = 8.30471e-08, No Iterations 0
GAMG:  Solving for p_rgh, Initial residual = 8.30471e-08, Final residual = 8.30471e-08, No Iterations 0
time step continuity errors : sum local = 5.57988e-07, global = -7.84599e-10, cumulative = -7.84599e-10
ExecutionTime = 398.944 s  ClockTime = 749 s

volFieldValue volAvgFinTemperature write:
    volAverage() of T = 608.763

volFieldValue volAvgHeaterTemperature write:
    volAverage() of T = 629.42

surfaceFieldValue averageTempHeaterFinInterface write:
    areaAverage(heater_to_fins) of T = 617.551

Region: fluid Courant Number mean: 1311.98 max: 38225.3
Region: fins Diffusion Number mean: 124.24 max: 149517
Region: heater Diffusion Number mean: 71.9582 max: 655.768
Time = 2000s


Solving for solid region fins
GAMG:  Solving for e, Initial residual = 9.9494e-07, Final residual = 9.9494e-07, No Iterations 0
Min/max T:599.091 618.759

Solving for solid region heater
GAMG:  Solving for e, Initial residual = 4.5592e-07, Final residual = 4.5592e-07, No Iterations 0
Min/max T:614.896 635.322

Solving for fluid region fluid
DILUPBiCGStab:  Solving for Ux, Initial residual = 3.29058e-10, Final residual = 3.29058e-10, No Iterations 0
DILUPBiCGStab:  Solving for Uy, Initial residual = 1.2449e-09, Final residual = 1.2449e-09, No Iterations 0
DILUPBiCGStab:  Solving for Uz, Initial residual = 1.02158e-09, Final residual = 1.02158e-09, No Iterations 0
DILUPBiCGStab:  Solving for h, Initial residual = 0.000467654, Final residual = 1.57102e-05, No Iterations 1
Min/max T:295.309 616.3
GAMG:  Solving for p_rgh, Initial residual = 1.00191e-07, Final residual = 6.58154e-09, No Iterations 1
GAMG:  Solving for p_rgh, Initial residual = 3.79841e-08, Final residual = 3.79841e-08, No Iterations 0
GAMG:  Solving for p_rgh, Initial residual = 3.79841e-08, Final residual = 3.79841e-08, No Iterations 0
time step continuity errors : sum local = 2.55212e-07, global = -6.76086e-10, cumulative = -6.76086e-10
ExecutionTime = 399.274 s  ClockTime = 750 s

volFieldValue volAvgFinTemperature write:
    volAverage() of T = 608.763

volFieldValue volAvgHeaterTemperature write:
    volAverage() of T = 629.42

surfaceFieldValue averageTempHeaterFinInterface write:
    areaAverage(heater_to_fins) of T = 617.551

End

