/*---------------------------------------------------------------------------*\
  =========                 |
  \\      /  F ield         | OpenFOAM: The Open Source CFD Toolbox
   \\    /   O peration     | Website:  https://openfoam.org
    \\  /    A nd           | Version:  10
     \\/     M anipulation  |
\*---------------------------------------------------------------------------*/
Build  : 10-c4cf895ad8fa
Exec   : chtMultiRegionFoam
Date   : Nov 01 2023
Time   : 09:05:14
Host   : "alexesn"
PID    : 7347
I/O    : uncollated
Case   : /mnt/c/Users/sasch/OneDrive/Desktop/MEPhI/Project_practice/FOAM_project/heatExchanger/all_auto/case_10_20
nProcs : 1
sigFpe : Enabling floating point exception trapping (FOAM_SIGFPE).
fileModificationChecking : Monitoring run-time modified files using timeStampMaster (fileModificationSkew 10)
allowSystemOperations : Allowing user-supplied system call operations

// * * * * * * * * * * * * * * * * * * * * * * * * * * * * * * * * * * * * * //
Create time

Create fluid mesh for region fluid for time = 0

Create solid mesh for region fins for time = 0

Create solid mesh for region heater for time = 0


PIMPLE: Region fluid
PIMPLE: No convergence criteria found


PIMPLE: Region fins
PIMPLE: No convergence criteria found


PIMPLE: Region heater
PIMPLE: No convergence criteria found


PIMPLE: Operating solver in steady-state mode with 1 outer corrector
PIMPLE: Operating solver in SIMPLE mode


*** Reading fluid mesh thermophysical properties for region fluid

    Adding to thermoFluid

Selecting thermodynamics package 
{
    type            heRhoThermo;
    mixture         pureMixture;
    transport       const;
    thermo          hConst;
    equationOfState rhoConst;
    specie          specie;
    energy          sensibleEnthalpy;
}

    Adding to rhoFluid

    Adding to UFluid

    Adding to phiFluid

    Adding to gFluid

    Adding to hRefFluid

    Adding to pRefFluid

    Adding to ghFluid

    Adding to ghfFluid

    Adding to turbulenceFluid

Selecting turbulence model type laminar
Selecting laminar stress model Stokes
    Adding to thermophysicalTransport

Selecting thermophysical transport type laminar
Selecting default laminar thermophysical transport model unityLewisFourier
    Adding to reactionFluid

Combustion model not active: combustionProperties not found
Selecting combustion model none
    Adding to KFluid

    Adding to dpdtFluid

    Adding to fieldsFluid

    Adding MRF

No MRF models present

    Adding fvModelsFluid

    Adding fvConstraintsFluid

Creating fvConstraints from "system/fvConstraints"

Selecting finite volume constraint type limitTemperature
    Name: limitT
    - selecting all cells
    - selected 10209 cell(s) with volume 0.00149667
*** Reading solid mesh thermophysical properties for region fins

    Adding to thermoSolid

Selecting thermodynamics package 
{
    type            heSolidThermo;
    mixture         pureMixture;
    transport       constIsoSolid;
    thermo          eConst;
    equationOfState rhoConst;
    specie          specie;
    energy          sensibleInternalEnergy;
}

    Adding to fvModelsSolid

    Adding fvConstraintsSolid

*** Reading solid mesh thermophysical properties for region heater

    Adding to thermoSolid

Selecting thermodynamics package 
{
    type            heSolidThermo;
    mixture         pureMixture;
    transport       constIsoSolid;
    thermo          eConst;
    equationOfState rhoConst;
    specie          specie;
    energy          sensibleInternalEnergy;
}

    Adding to fvModelsSolid

Creating fvModels from "constant/fvModels"

Selecting finite volume model type heatSource
    Name: energySource
    - selecting all cells
    - selected 614 cell(s) with volume 1e-06
    Adding fvConstraintsSolid

Region: fluid Courant Number mean: 1296.93 max: 196959
Region: fins Diffusion Number mean: 118.269 max: 143468
Region: heater Diffusion Number mean: 71.2686 max: 522.241








surfaceFieldValue averageTempHeaterFinInterface:
    total faces  = 56
    total area   = 0.0001


volFieldValue volAvgFinTemperature write:
    volAverage() of T = 296.9

volFieldValue volAvgHeaterTemperature write:
    volAverage() of T = 296.9

surfaceFieldValue averageTempHeaterFinInterface write:
    areaAverage(heater_to_fins) of T = 296.9

Region: fluid Courant Number mean: 1296.93 max: 196959
Region: fins Diffusion Number mean: 118.269 max: 143468
Region: heater Diffusion Number mean: 71.2686 max: 522.241
Time = 1s


Solving for solid region fins
GAMG:  Solving for e, Initial residual = 0.982452, Final residual = 0.0420798, No Iterations 1
Min/max T:296.9 296.9

Solving for solid region heater
GAMG:  Solving for e, Initial residual = 1, Final residual = 0.0742883, No Iterations 3
Min/max T:296.9 314.417

Solving for fluid region fluid
DILUPBiCGStab:  Solving for Ux, Initial residual = 1, Final residual = 0.0246195, No Iterations 1
DILUPBiCGStab:  Solving for Uy, Initial residual = 1, Final residual = 0.028811, No Iterations 1
DILUPBiCGStab:  Solving for Uz, Initial residual = 1, Final residual = 0.03081, No Iterations 1
DILUPBiCGStab:  Solving for h, Initial residual = 1, Final residual = 0.0700775, No Iterations 1
Min/max T:295.653 297.758
GAMG:  Solving for p_rgh, Initial residual = 1, Final residual = 0.0088445, No Iterations 7
GAMG:  Solving for p_rgh, Initial residual = 0.445768, Final residual = 0.00302873, No Iterations 2
GAMG:  Solving for p_rgh, Initial residual = 0.0391138, Final residual = 0.00020679, No Iterations 3
time step continuity errors : sum local = 0.00886741, global = -0.00332288, cumulative = -0.00332288
ExecutionTime = 4.87605 s  ClockTime = 11 s

volFieldValue volAvgFinTemperature write:
    volAverage() of T = 296.9

volFieldValue volAvgHeaterTemperature write:
    volAverage() of T = 308.757

surfaceFieldValue averageTempHeaterFinInterface write:
    areaAverage(heater_to_fins) of T = 296.9

Region: fluid Courant Number mean: 1298.96 max: 102656
Region: fins Diffusion Number mean: 118.269 max: 143468
Region: heater Diffusion Number mean: 71.2686 max: 522.241
Time = 2s


Solving for solid region fins
GAMG:  Solving for e, Initial residual = 1, Final residual = 0.0240616, No Iterations 1
Min/max T:296.899 299.377

Solving for solid region heater
GAMG:  Solving for e, Initial residual = 0.25176, Final residual = 0.00624043, No Iterations 1
Min/max T:298.722 316.729

Solving for fluid region fluid
DILUPBiCGStab:  Solving for Ux, Initial residual = 0.245845, Final residual = 0.0109195, No Iterations 1
DILUPBiCGStab:  Solving for Uy, Initial residual = 0.350205, Final residual = 0.0149565, No Iterations 1
DILUPBiCGStab:  Solving for Uz, Initial residual = 0.409498, Final residual = 0.0177694, No Iterations 1
DILUPBiCGStab:  Solving for h, Initial residual = 0.132146, Final residual = 0.0101353, No Iterations 1
Min/max T:295.793 299.24
GAMG:  Solving for p_rgh, Initial residual = 0.217192, Final residual = 0.00189866, No Iterations 6
GAMG:  Solving for p_rgh, Initial residual = 0.704348, Final residual = 0.00498815, No Iterations 2
GAMG:  Solving for p_rgh, Initial residual = 0.119777, Final residual = 0.000979576, No Iterations 3
time step continuity errors : sum local = 0.0208775, global = 0.00443425, cumulative = 0.00443425
ExecutionTime = 5.04503 s  ClockTime = 12 s

volFieldValue volAvgFinTemperature write:
    volAverage() of T = 299.114

volFieldValue volAvgHeaterTemperature write:
    volAverage() of T = 311.153

surfaceFieldValue averageTempHeaterFinInterface write:
    areaAverage(heater_to_fins) of T = 299.151

Region: fluid Courant Number mean: 1298.72 max: 77640.2
Region: fins Diffusion Number mean: 118.269 max: 143468
Region: heater Diffusion Number mean: 71.2686 max: 522.241
Time = 3s


Solving for solid region fins
GAMG:  Solving for e, Initial residual = 0.582745, Final residual = 0.00904874, No Iterations 1
Min/max T:299.022 301.64

Solving for solid region heater
GAMG:  Solving for e, Initial residual = 0.0884105, Final residual = 0.00281817, No Iterations 1
Min/max T:300.996 319.31

Solving for fluid region fluid
DILUPBiCGStab:  Solving for Ux, Initial residual = 0.102958, Final residual = 0.00455456, No Iterations 1
DILUPBiCGStab:  Solving for Uy, Initial residual = 0.262711, Final residual = 0.0109533, No Iterations 1
DILUPBiCGStab:  Solving for Uz, Initial residual = 0.358205, Final residual = 0.0154973, No Iterations 1
DILUPBiCGStab:  Solving for h, Initial residual = 0.083817, Final residual = 0.00676995, No Iterations 1
Min/max T:296.488 301.467
GAMG:  Solving for p_rgh, Initial residual = 0.209097, Final residual = 0.00158934, No Iterations 6
GAMG:  Solving for p_rgh, Initial residual = 0.705156, Final residual = 0.00498238, No Iterations 2
GAMG:  Solving for p_rgh, Initial residual = 0.116976, Final residual = 0.000905537, No Iterations 3
time step continuity errors : sum local = 0.00817853, global = -0.0017244, cumulative = -0.0017244
ExecutionTime = 5.19283 s  ClockTime = 12 s

volFieldValue volAvgFinTemperature write:
    volAverage() of T = 301.329

volFieldValue volAvgHeaterTemperature write:
    volAverage() of T = 313.622

surfaceFieldValue averageTempHeaterFinInterface write:
    areaAverage(heater_to_fins) of T = 301.403

Region: fluid Courant Number mean: 1298.28 max: 232503
Region: fins Diffusion Number mean: 118.269 max: 143468
Region: heater Diffusion Number mean: 71.2686 max: 522.241
Time = 4s


Solving for solid region fins
GAMG:  Solving for e, Initial residual = 0.529285, Final residual = 0.00976857, No Iterations 1
Min/max T:301.224 303.886

Solving for solid region heater
GAMG:  Solving for e, Initial residual = 0.0774238, Final residual = 0.00169108, No Iterations 1
Min/max T:303.236 321.744

Solving for fluid region fluid
DILUPBiCGStab:  Solving for Ux, Initial residual = 0.0408561, Final residual = 0.00181245, No Iterations 1
DILUPBiCGStab:  Solving for Uy, Initial residual = 0.0829391, Final residual = 0.00352496, No Iterations 1
DILUPBiCGStab:  Solving for Uz, Initial residual = 0.10337, Final residual = 0.00448934, No Iterations 1
DILUPBiCGStab:  Solving for h, Initial residual = 0.0316048, Final residual = 0.00285991, No Iterations 1
Min/max T:296.611 303.715
GAMG:  Solving for p_rgh, Initial residual = 0.160507, Final residual = 0.00127572, No Iterations 6
GAMG:  Solving for p_rgh, Initial residual = 0.409738, Final residual = 0.00275354, No Iterations 2
GAMG:  Solving for p_rgh, Initial residual = 0.0576892, Final residual = 0.000416211, No Iterations 3
time step continuity errors : sum local = 0.00306914, global = 0.000632397, cumulative = 0.000632397
ExecutionTime = 5.45559 s  ClockTime = 12 s

volFieldValue volAvgFinTemperature write:
    volAverage() of T = 303.536

volFieldValue volAvgHeaterTemperature write:
    volAverage() of T = 316.005

surfaceFieldValue averageTempHeaterFinInterface write:
    areaAverage(heater_to_fins) of T = 303.658

Region: fluid Courant Number mean: 1298.1 max: 147020
Region: fins Diffusion Number mean: 118.269 max: 143468
Region: heater Diffusion Number mean: 71.2686 max: 522.241
Time = 5s


Solving for solid region fins
GAMG:  Solving for e, Initial residual = 0.499477, Final residual = 0.0107769, No Iterations 1
Min/max T:303.45 306.129

Solving for solid region heater
GAMG:  Solving for e, Initial residual = 0.0738585, Final residual = 0.00104923, No Iterations 1
Min/max T:305.483 324.11

Solving for fluid region fluid
DILUPBiCGStab:  Solving for Ux, Initial residual = 0.0166756, Final residual = 0.000721753, No Iterations 1
DILUPBiCGStab:  Solving for Uy, Initial residual = 0.0425151, Final residual = 0.00168385, No Iterations 1
DILUPBiCGStab:  Solving for Uz, Initial residual = 0.0500885, Final residual = 0.0021572, No Iterations 1
DILUPBiCGStab:  Solving for h, Initial residual = 0.0193309, Final residual = 0.00184535, No Iterations 1
Min/max T:296.795 305.952
GAMG:  Solving for p_rgh, Initial residual = 0.105321, Final residual = 0.000570838, No Iterations 6
GAMG:  Solving for p_rgh, Initial residual = 0.264435, Final residual = 0.0017412, No Iterations 2
GAMG:  Solving for p_rgh, Initial residual = 0.0349407, Final residual = 0.000247643, No Iterations 3
time step continuity errors : sum local = 0.00126514, global = -0.00026535, cumulative = -0.00026535
ExecutionTime = 5.71266 s  ClockTime = 13 s

volFieldValue volAvgFinTemperature write:
    volAverage() of T = 305.733

volFieldValue volAvgHeaterTemperature write:
    volAverage() of T = 318.333

surfaceFieldValue averageTempHeaterFinInterface write:
    areaAverage(heater_to_fins) of T = 305.909

Region: fluid Courant Number mean: 1297.85 max: 102029
Region: fins Diffusion Number mean: 118.269 max: 143468
Region: heater Diffusion Number mean: 71.2686 max: 522.241
Time = 6s


Solving for solid region fins
GAMG:  Solving for e, Initial residual = 0.478108, Final residual = 0.0113542, No Iterations 1
Min/max T:305.638 308.359

Solving for solid region heater
GAMG:  Solving for e, Initial residual = 0.0719757, Final residual = 0.000654331, No Iterations 1
Min/max T:307.726 326.422

Solving for fluid region fluid
DILUPBiCGStab:  Solving for Ux, Initial residual = 0.00849101, Final residual = 0.000378245, No Iterations 1
DILUPBiCGStab:  Solving for Uy, Initial residual = 0.0200041, Final residual = 0.000804273, No Iterations 1
DILUPBiCGStab:  Solving for Uz, Initial residual = 0.0241065, Final residual = 0.00106412, No Iterations 1
DILUPBiCGStab:  Solving for h, Initial residual = 0.013962, Final residual = 0.00128291, No Iterations 1
Min/max T:296.843 308.18
GAMG:  Solving for p_rgh, Initial residual = 0.0711695, Final residual = 0.000680286, No Iterations 5
GAMG:  Solving for p_rgh, Initial residual = 0.0980437, Final residual = 0.000640455, No Iterations 2
GAMG:  Solving for p_rgh, Initial residual = 0.0123571, Final residual = 9.00841e-05, No Iterations 3
time step continuity errors : sum local = 0.000526103, global = 0.000122195, cumulative = 0.000122195
ExecutionTime = 5.87394 s  ClockTime = 13 s

volFieldValue volAvgFinTemperature write:
    volAverage() of T = 307.917

volFieldValue volAvgHeaterTemperature write:
    volAverage() of T = 320.621

surfaceFieldValue averageTempHeaterFinInterface write:
    areaAverage(heater_to_fins) of T = 308.151

Region: fluid Courant Number mean: 1297.66 max: 71337.8
Region: fins Diffusion Number mean: 118.269 max: 143468
Region: heater Diffusion Number mean: 71.2686 max: 522.241
Time = 7s


Solving for solid region fins
GAMG:  Solving for e, Initial residual = 0.45793, Final residual = 0.0115478, No Iterations 1
Min/max T:307.801 310.574

Solving for solid region heater
GAMG:  Solving for e, Initial residual = 0.0705932, Final residual = 0.00041227, No Iterations 1
Min/max T:309.958 328.694

Solving for fluid region fluid
DILUPBiCGStab:  Solving for Ux, Initial residual = 0.00438778, Final residual = 0.000177904, No Iterations 1
DILUPBiCGStab:  Solving for Uy, Initial residual = 0.0122775, Final residual = 0.000405495, No Iterations 1
DILUPBiCGStab:  Solving for Uz, Initial residual = 0.0127176, Final residual = 0.000506875, No Iterations 1
DILUPBiCGStab:  Solving for h, Initial residual = 0.0109359, Final residual = 0.000933619, No Iterations 1
Min/max T:296.872 310.395
GAMG:  Solving for p_rgh, Initial residual = 0.0399561, Final residual = 0.000261331, No Iterations 5
GAMG:  Solving for p_rgh, Initial residual = 0.0444231, Final residual = 0.000268689, No Iterations 2
GAMG:  Solving for p_rgh, Initial residual = 0.0054947, Final residual = 3.02947e-05, No Iterations 3
time step continuity errors : sum local = 0.000165832, global = -2.48298e-05, cumulative = -2.48298e-05
ExecutionTime = 6.06579 s  ClockTime = 13 s

volFieldValue volAvgFinTemperature write:
    volAverage() of T = 310.086

volFieldValue volAvgHeaterTemperature write:
    volAverage() of T = 322.878

surfaceFieldValue averageTempHeaterFinInterface write:
    areaAverage(heater_to_fins) of T = 310.381

Region: fluid Courant Number mean: 1297.46 max: 69332.7
Region: fins Diffusion Number mean: 118.269 max: 143468
Region: heater Diffusion Number mean: 71.2686 max: 522.241
Time = 8s


Solving for solid region fins
GAMG:  Solving for e, Initial residual = 0.437882, Final residual = 0.0114601, No Iterations 1
Min/max T:309.95 312.775

Solving for solid region heater
GAMG:  Solving for e, Initial residual = 0.0695466, Final residual = 0.000261603, No Iterations 1
Min/max T:312.178 330.935

Solving for fluid region fluid
DILUPBiCGStab:  Solving for Ux, Initial residual = 0.00378419, Final residual = 0.000169074, No Iterations 1
DILUPBiCGStab:  Solving for Uy, Initial residual = 0.00974108, Final residual = 0.000350586, No Iterations 1
DILUPBiCGStab:  Solving for Uz, Initial residual = 0.0113998, Final residual = 0.000489818, No Iterations 1
DILUPBiCGStab:  Solving for h, Initial residual = 0.00894022, Final residual = 0.00074856, No Iterations 1
Min/max T:296.864 312.595
GAMG:  Solving for p_rgh, Initial residual = 0.028616, Final residual = 0.000133296, No Iterations 5
GAMG:  Solving for p_rgh, Initial residual = 0.0176049, Final residual = 0.000107492, No Iterations 2
GAMG:  Solving for p_rgh, Initial residual = 0.00219308, Final residual = 1.26259e-05, No Iterations 3
time step continuity errors : sum local = 7.17607e-05, global = -2.02106e-05, cumulative = -2.02106e-05
ExecutionTime = 6.31881 s  ClockTime = 14 s

volFieldValue volAvgFinTemperature write:
    volAverage() of T = 312.241

volFieldValue volAvgHeaterTemperature write:
    volAverage() of T = 325.109

surfaceFieldValue averageTempHeaterFinInterface write:
    areaAverage(heater_to_fins) of T = 312.597

Region: fluid Courant Number mean: 1297.27 max: 68435
Region: fins Diffusion Number mean: 118.269 max: 143468
Region: heater Diffusion Number mean: 71.2686 max: 522.241
Time = 9s


Solving for solid region fins
GAMG:  Solving for e, Initial residual = 0.418325, Final residual = 0.0112283, No Iterations 1
Min/max T:312.086 314.959

Solving for solid region heater
GAMG:  Solving for e, Initial residual = 0.0686998, Final residual = 0.000167401, No Iterations 1
Min/max T:314.384 333.152

Solving for fluid region fluid
DILUPBiCGStab:  Solving for Ux, Initial residual = 0.00318353, Final residual = 0.000140231, No Iterations 1
DILUPBiCGStab:  Solving for Uy, Initial residual = 0.00785377, Final residual = 0.000273018, No Iterations 1
DILUPBiCGStab:  Solving for Uz, Initial residual = 0.00877104, Final residual = 0.000368468, No Iterations 1
DILUPBiCGStab:  Solving for h, Initial residual = 0.00759489, Final residual = 0.000627, No Iterations 1
Min/max T:296.862 314.78
GAMG:  Solving for p_rgh, Initial residual = 0.0220608, Final residual = 0.000134619, No Iterations 4
GAMG:  Solving for p_rgh, Initial residual = 0.0084752, Final residual = 6.42689e-05, No Iterations 2
GAMG:  Solving for p_rgh, Initial residual = 0.0010922, Final residual = 1.08116e-05, No Iterations 3
time step continuity errors : sum local = 6.09119e-05, global = 1.38489e-05, cumulative = 1.38489e-05
ExecutionTime = 6.53181 s  ClockTime = 14 s

volFieldValue volAvgFinTemperature write:
    volAverage() of T = 314.381

volFieldValue volAvgHeaterTemperature write:
    volAverage() of T = 327.319

surfaceFieldValue averageTempHeaterFinInterface write:
    areaAverage(heater_to_fins) of T = 314.8

Region: fluid Courant Number mean: 1297.1 max: 67530.1
Region: fins Diffusion Number mean: 118.269 max: 143468
Region: heater Diffusion Number mean: 71.2686 max: 522.241
Time = 10s


Solving for solid region fins
GAMG:  Solving for e, Initial residual = 0.399643, Final residual = 0.0109091, No Iterations 1
Min/max T:314.207 317.13

Solving for solid region heater
GAMG:  Solving for e, Initial residual = 0.0679812, Final residual = 0.000108495, No Iterations 1
Min/max T:316.575 335.346

Solving for fluid region fluid
DILUPBiCGStab:  Solving for Ux, Initial residual = 0.00301313, Final residual = 0.000135807, No Iterations 1
DILUPBiCGStab:  Solving for Uy, Initial residual = 0.00720584, Final residual = 0.000270679, No Iterations 1
DILUPBiCGStab:  Solving for Uz, Initial residual = 0.00851782, Final residual = 0.000368018, No Iterations 1
DILUPBiCGStab:  Solving for h, Initial residual = 0.00661971, Final residual = 0.000533147, No Iterations 1
Min/max T:296.857 316.95
GAMG:  Solving for p_rgh, Initial residual = 0.0190495, Final residual = 0.000141896, No Iterations 3
GAMG:  Solving for p_rgh, Initial residual = 0.00412233, Final residual = 2.28751e-05, No Iterations 3
GAMG:  Solving for p_rgh, Initial residual = 0.000680722, Final residual = 4.41407e-06, No Iterations 3
time step continuity errors : sum local = 2.51784e-05, global = -1.08073e-06, cumulative = -1.08073e-06
ExecutionTime = 6.73375 s  ClockTime = 15 s

volFieldValue volAvgFinTemperature write:
    volAverage() of T = 316.505

volFieldValue volAvgHeaterTemperature write:
    volAverage() of T = 329.509

surfaceFieldValue averageTempHeaterFinInterface write:
    areaAverage(heater_to_fins) of T = 316.987

Region: fluid Courant Number mean: 1296.92 max: 66600.7
Region: fins Diffusion Number mean: 118.269 max: 143468
Region: heater Diffusion Number mean: 71.2686 max: 522.241
Time = 11s


Solving for solid region fins
GAMG:  Solving for e, Initial residual = 0.381929, Final residual = 0.0105479, No Iterations 1
Min/max T:316.315 319.308

Solving for solid region heater
GAMG:  Solving for e, Initial residual = 0.0673448, Final residual = 7.35879e-05, No Iterations 1
Min/max T:318.75 337.522

Solving for fluid region fluid
DILUPBiCGStab:  Solving for Ux, Initial residual = 0.00281619, Final residual = 0.00012715, No Iterations 1
DILUPBiCGStab:  Solving for Uy, Initial residual = 0.00643404, Final residual = 0.000246501, No Iterations 1
DILUPBiCGStab:  Solving for Uz, Initial residual = 0.00754961, Final residual = 0.000327178, No Iterations 1
DILUPBiCGStab:  Solving for h, Initial residual = 0.00589519, Final residual = 0.000459393, No Iterations 1
Min/max T:296.853 319.124
GAMG:  Solving for p_rgh, Initial residual = 0.0165459, Final residual = 7.49648e-05, No Iterations 3
GAMG:  Solving for p_rgh, Initial residual = 0.00294944, Final residual = 1.46652e-05, No Iterations 3
GAMG:  Solving for p_rgh, Initial residual = 0.000469478, Final residual = 3.29482e-06, No Iterations 3
time step continuity errors : sum local = 1.88365e-05, global = -4.58387e-06, cumulative = -4.58387e-06
ExecutionTime = 6.95857 s  ClockTime = 15 s

volFieldValue volAvgFinTemperature write:
    volAverage() of T = 318.615

volFieldValue volAvgHeaterTemperature write:
    volAverage() of T = 331.682

surfaceFieldValue averageTempHeaterFinInterface write:
    areaAverage(heater_to_fins) of T = 319.16

Region: fluid Courant Number mean: 1296.75 max: 65648.8
Region: fins Diffusion Number mean: 118.269 max: 143468
Region: heater Diffusion Number mean: 71.2686 max: 522.241
Time = 12s


Solving for solid region fins
GAMG:  Solving for e, Initial residual = 0.365325, Final residual = 0.0101644, No Iterations 1
Min/max T:318.408 321.471

Solving for solid region heater
GAMG:  Solving for e, Initial residual = 0.0667605, Final residual = 5.37836e-05, No Iterations 1
Min/max T:320.91 339.679

Solving for fluid region fluid
DILUPBiCGStab:  Solving for Ux, Initial residual = 0.00268309, Final residual = 0.000121691, No Iterations 1
DILUPBiCGStab:  Solving for Uy, Initial residual = 0.00600528, Final residual = 0.000238163, No Iterations 1
DILUPBiCGStab:  Solving for Uz, Initial residual = 0.00712592, Final residual = 0.000310718, No Iterations 1
DILUPBiCGStab:  Solving for h, Initial residual = 0.00533185, Final residual = 0.000404581, No Iterations 1
Min/max T:296.849 321.285
GAMG:  Solving for p_rgh, Initial residual = 0.0154595, Final residual = 0.000153033, No Iterations 2
GAMG:  Solving for p_rgh, Initial residual = 0.0024329, Final residual = 1.8984e-05, No Iterations 3
GAMG:  Solving for p_rgh, Initial residual = 0.000476609, Final residual = 3.78454e-06, No Iterations 3
time step continuity errors : sum local = 2.17638e-05, global = -2.81534e-06, cumulative = -2.81534e-06
ExecutionTime = 7.17862 s  ClockTime = 15 s

volFieldValue volAvgFinTemperature write:
    volAverage() of T = 320.709

volFieldValue volAvgHeaterTemperature write:
    volAverage() of T = 333.837

surfaceFieldValue averageTempHeaterFinInterface write:
    areaAverage(heater_to_fins) of T = 321.317

Region: fluid Courant Number mean: 1296.59 max: 64686.3
Region: fins Diffusion Number mean: 118.269 max: 143468
Region: heater Diffusion Number mean: 71.2686 max: 522.241
Time = 13s


Solving for solid region fins
GAMG:  Solving for e, Initial residual = 0.349725, Final residual = 0.00977089, No Iterations 1
Min/max T:320.487 323.618

Solving for solid region heater
GAMG:  Solving for e, Initial residual = 0.066209, Final residual = 4.26009e-05, No Iterations 1
Min/max T:323.05 341.82

Solving for fluid region fluid
DILUPBiCGStab:  Solving for Ux, Initial residual = 0.00256158, Final residual = 0.000116247, No Iterations 1
DILUPBiCGStab:  Solving for Uy, Initial residual = 0.00558718, Final residual = 0.000226414, No Iterations 1
DILUPBiCGStab:  Solving for Uz, Initial residual = 0.00660533, Final residual = 0.000288266, No Iterations 1
DILUPBiCGStab:  Solving for h, Initial residual = 0.00487932, Final residual = 0.000359855, No Iterations 1
Min/max T:296.845 323.43
GAMG:  Solving for p_rgh, Initial residual = 0.0139722, Final residual = 0.000121089, No Iterations 2
GAMG:  Solving for p_rgh, Initial residual = 0.00209923, Final residual = 1.61451e-05, No Iterations 3
GAMG:  Solving for p_rgh, Initial residual = 0.00039913, Final residual = 3.18242e-06, No Iterations 3
time step continuity errors : sum local = 1.8389e-05, global = -1.37183e-06, cumulative = -1.37183e-06
ExecutionTime = 7.43245 s  ClockTime = 16 s

volFieldValue volAvgFinTemperature write:
    volAverage() of T = 322.789

volFieldValue volAvgHeaterTemperature write:
    volAverage() of T = 335.977

surfaceFieldValue averageTempHeaterFinInterface write:
    areaAverage(heater_to_fins) of T = 323.459

Region: fluid Courant Number mean: 1296.42 max: 63730.4
Region: fins Diffusion Number mean: 118.269 max: 143468
Region: heater Diffusion Number mean: 71.2686 max: 522.241
Time = 14s


Solving for solid region fins
GAMG:  Solving for e, Initial residual = 0.334875, Final residual = 0.00938769, No Iterations 1
Min/max T:322.55 325.751

Solving for solid region heater
GAMG:  Solving for e, Initial residual = 0.0656784, Final residual = 3.58229e-05, No Iterations 1
Min/max T:325.166 343.945

Solving for fluid region fluid
DILUPBiCGStab:  Solving for Ux, Initial residual = 0.00245391, Final residual = 0.00011145, No Iterations 1
DILUPBiCGStab:  Solving for Uy, Initial residual = 0.00526467, Final residual = 0.000218067, No Iterations 1
DILUPBiCGStab:  Solving for Uz, Initial residual = 0.00622561, Final residual = 0.000271974, No Iterations 1
DILUPBiCGStab:  Solving for h, Initial residual = 0.0045062, Final residual = 0.000329839, No Iterations 1
Min/max T:296.841 325.561
GAMG:  Solving for p_rgh, Initial residual = 0.0126295, Final residual = 0.000117373, No Iterations 2
GAMG:  Solving for p_rgh, Initial residual = 0.00193995, Final residual = 1.60161e-05, No Iterations 3
GAMG:  Solving for p_rgh, Initial residual = 0.000374477, Final residual = 3.19743e-06, No Iterations 3
time step continuity errors : sum local = 1.8551e-05, global = -2.49252e-06, cumulative = -2.49252e-06
ExecutionTime = 7.65696 s  ClockTime = 16 s

volFieldValue volAvgFinTemperature write:
    volAverage() of T = 324.853

volFieldValue volAvgHeaterTemperature write:
    volAverage() of T = 338.1

surfaceFieldValue averageTempHeaterFinInterface write:
    areaAverage(heater_to_fins) of T = 325.586

Region: fluid Courant Number mean: 1296.26 max: 62799.4
Region: fins Diffusion Number mean: 118.269 max: 143468
Region: heater Diffusion Number mean: 71.2686 max: 522.241
Time = 15s


Solving for solid region fins
GAMG:  Solving for e, Initial residual = 0.320928, Final residual = 0.00901267, No Iterations 1
Min/max T:324.596 327.868

Solving for solid region heater
GAMG:  Solving for e, Initial residual = 0.0651637, Final residual = 3.15388e-05, No Iterations 1
Min/max T:327.267 346.054

Solving for fluid region fluid
DILUPBiCGStab:  Solving for Ux, Initial residual = 0.00236135, Final residual = 0.000107209, No Iterations 1
DILUPBiCGStab:  Solving for Uy, Initial residual = 0.00499053, Final residual = 0.00020991, No Iterations 1
DILUPBiCGStab:  Solving for Uz, Initial residual = 0.00586988, Final residual = 0.000256505, No Iterations 1
DILUPBiCGStab:  Solving for h, Initial residual = 0.00419226, Final residual = 0.000303858, No Iterations 1
Min/max T:296.837 327.677
GAMG:  Solving for p_rgh, Initial residual = 0.0116717, Final residual = 0.000107287, No Iterations 2
GAMG:  Solving for p_rgh, Initial residual = 0.00175719, Final residual = 1.48883e-05, No Iterations 3
GAMG:  Solving for p_rgh, Initial residual = 0.000342978, Final residual = 2.96585e-06, No Iterations 3
time step continuity errors : sum local = 1.72623e-05, global = -2.93123e-06, cumulative = -2.93123e-06
ExecutionTime = 7.84601 s  ClockTime = 16 s

volFieldValue volAvgFinTemperature write:
    volAverage() of T = 326.904

volFieldValue volAvgHeaterTemperature write:
    volAverage() of T = 340.209

surfaceFieldValue averageTempHeaterFinInterface write:
    areaAverage(heater_to_fins) of T = 327.698

Region: fluid Courant Number mean: 1296.1 max: 61910.2
Region: fins Diffusion Number mean: 118.269 max: 143468
Region: heater Diffusion Number mean: 71.2686 max: 522.241
Time = 16s


Solving for solid region fins
GAMG:  Solving for e, Initial residual = 0.307843, Final residual = 0.00865156, No Iterations 1
Min/max T:326.628 329.971

Solving for solid region heater
GAMG:  Solving for e, Initial residual = 0.0646605, Final residual = 2.90331e-05, No Iterations 1
Min/max T:329.354 348.148

Solving for fluid region fluid
DILUPBiCGStab:  Solving for Ux, Initial residual = 0.00227982, Final residual = 0.000103493, No Iterations 1
DILUPBiCGStab:  Solving for Uy, Initial residual = 0.0047577, Final residual = 0.00020193, No Iterations 1
DILUPBiCGStab:  Solving for Uz, Initial residual = 0.00556475, Final residual = 0.000243401, No Iterations 1
DILUPBiCGStab:  Solving for h, Initial residual = 0.00392688, Final residual = 0.000282359, No Iterations 1
Min/max T:296.833 329.778
GAMG:  Solving for p_rgh, Initial residual = 0.0111619, Final residual = 0.000101376, No Iterations 2
GAMG:  Solving for p_rgh, Initial residual = 0.00168923, Final residual = 1.48543e-05, No Iterations 3
GAMG:  Solving for p_rgh, Initial residual = 0.000334967, Final residual = 2.94507e-06, No Iterations 3
time step continuity errors : sum local = 1.71912e-05, global = -2.36748e-06, cumulative = -2.36748e-06
ExecutionTime = 8.02492 s  ClockTime = 17 s

volFieldValue volAvgFinTemperature write:
    volAverage() of T = 328.94

volFieldValue volAvgHeaterTemperature write:
    volAverage() of T = 342.302

surfaceFieldValue averageTempHeaterFinInterface write:
    areaAverage(heater_to_fins) of T = 329.796

Region: fluid Courant Number mean: 1295.95 max: 61076.6
Region: fins Diffusion Number mean: 118.269 max: 143468
Region: heater Diffusion Number mean: 71.2686 max: 522.241
Time = 17s


Solving for solid region fins
GAMG:  Solving for e, Initial residual = 0.295609, Final residual = 0.00830639, No Iterations 1
Min/max T:328.646 332.058

Solving for solid region heater
GAMG:  Solving for e, Initial residual = 0.0641664, Final residual = 2.75399e-05, No Iterations 1
Min/max T:331.426 350.226

Solving for fluid region fluid
DILUPBiCGStab:  Solving for Ux, Initial residual = 0.0022068, Final residual = 0.000100177, No Iterations 1
DILUPBiCGStab:  Solving for Uy, Initial residual = 0.00455019, Final residual = 0.000194254, No Iterations 1
DILUPBiCGStab:  Solving for Uz, Initial residual = 0.00528643, Final residual = 0.000231435, No Iterations 1
DILUPBiCGStab:  Solving for h, Initial residual = 0.00369705, Final residual = 0.000265346, No Iterations 1
Min/max T:296.829 331.865
GAMG:  Solving for p_rgh, Initial residual = 0.0109952, Final residual = 0.000103839, No Iterations 2
GAMG:  Solving for p_rgh, Initial residual = 0.00162694, Final residual = 1.52263e-05, No Iterations 3
GAMG:  Solving for p_rgh, Initial residual = 0.000329679, Final residual = 2.98984e-06, No Iterations 3
time step continuity errors : sum local = 1.74994e-05, global = -2.49836e-06, cumulative = -2.49836e-06
ExecutionTime = 8.18917 s  ClockTime = 17 s

volFieldValue volAvgFinTemperature write:
    volAverage() of T = 330.962

volFieldValue volAvgHeaterTemperature write:
    volAverage() of T = 344.38

surfaceFieldValue averageTempHeaterFinInterface write:
    areaAverage(heater_to_fins) of T = 331.878

Region: fluid Courant Number mean: 1295.8 max: 60308.2
Region: fins Diffusion Number mean: 118.269 max: 143468
Region: heater Diffusion Number mean: 71.2686 max: 522.241
Time = 18s


Solving for solid region fins
GAMG:  Solving for e, Initial residual = 0.284209, Final residual = 0.00798199, No Iterations 1
Min/max T:330.651 334.131

Solving for solid region heater
GAMG:  Solving for e, Initial residual = 0.0636795, Final residual = 2.66565e-05, No Iterations 1
Min/max T:333.483 352.291

Solving for fluid region fluid
DILUPBiCGStab:  Solving for Ux, Initial residual = 0.0021407, Final residual = 9.71192e-05, No Iterations 1
DILUPBiCGStab:  Solving for Uy, Initial residual = 0.00436964, Final residual = 0.000187266, No Iterations 1
DILUPBiCGStab:  Solving for Uz, Initial residual = 0.00504437, Final residual = 0.00022076, No Iterations 1
DILUPBiCGStab:  Solving for h, Initial residual = 0.0034957, Final residual = 0.00025075, No Iterations 1
Min/max T:296.826 333.936
GAMG:  Solving for p_rgh, Initial residual = 0.0102465, Final residual = 9.13164e-05, No Iterations 2
GAMG:  Solving for p_rgh, Initial residual = 0.00153273, Final residual = 1.3774e-05, No Iterations 3
GAMG:  Solving for p_rgh, Initial residual = 0.000308746, Final residual = 2.73561e-06, No Iterations 3
time step continuity errors : sum local = 1.60589e-05, global = -1.59253e-06, cumulative = -1.59253e-06
ExecutionTime = 8.37928 s  ClockTime = 17 s

volFieldValue volAvgFinTemperature write:
    volAverage() of T = 332.969

volFieldValue volAvgHeaterTemperature write:
    volAverage() of T = 346.444

surfaceFieldValue averageTempHeaterFinInterface write:
    areaAverage(heater_to_fins) of T = 333.946

Region: fluid Courant Number mean: 1295.65 max: 59610.9
Region: fins Diffusion Number mean: 118.269 max: 143468
Region: heater Diffusion Number mean: 71.2686 max: 522.241
Time = 19s


Solving for solid region fins
GAMG:  Solving for e, Initial residual = 0.273599, Final residual = 0.00767894, No Iterations 1
Min/max T:332.641 336.19

Solving for solid region heater
GAMG:  Solving for e, Initial residual = 0.0631984, Final residual = 2.61189e-05, No Iterations 1
Min/max T:335.527 354.34

Solving for fluid region fluid
DILUPBiCGStab:  Solving for Ux, Initial residual = 0.00207923, Final residual = 9.4188e-05, No Iterations 1
DILUPBiCGStab:  Solving for Uy, Initial residual = 0.00421266, Final residual = 0.000180822, No Iterations 1
DILUPBiCGStab:  Solving for Uz, Initial residual = 0.00481336, Final residual = 0.000210787, No Iterations 1
DILUPBiCGStab:  Solving for h, Initial residual = 0.00331924, Final residual = 0.000238255, No Iterations 1
Min/max T:296.822 335.994
GAMG:  Solving for p_rgh, Initial residual = 0.00977955, Final residual = 8.90874e-05, No Iterations 2
GAMG:  Solving for p_rgh, Initial residual = 0.00144832, Final residual = 1.3508e-05, No Iterations 3
GAMG:  Solving for p_rgh, Initial residual = 0.000288525, Final residual = 2.65588e-06, No Iterations 3
time step continuity errors : sum local = 1.56259e-05, global = -1.68575e-06, cumulative = -1.68575e-06
ExecutionTime = 8.53443 s  ClockTime = 18 s

volFieldValue volAvgFinTemperature write:
    volAverage() of T = 334.963

volFieldValue volAvgHeaterTemperature write:
    volAverage() of T = 348.493

surfaceFieldValue averageTempHeaterFinInterface write:
    areaAverage(heater_to_fins) of T = 336

Region: fluid Courant Number mean: 1295.5 max: 58986.4
Region: fins Diffusion Number mean: 118.269 max: 143468
Region: heater Diffusion Number mean: 71.2686 max: 522.241
Time = 20s


Solving for solid region fins
GAMG:  Solving for e, Initial residual = 0.263646, Final residual = 0.00739254, No Iterations 1
Min/max T:334.618 338.234

Solving for solid region heater
GAMG:  Solving for e, Initial residual = 0.0627226, Final residual = 2.57434e-05, No Iterations 1
Min/max T:337.556 356.375

Solving for fluid region fluid
DILUPBiCGStab:  Solving for Ux, Initial residual = 0.00202208, Final residual = 9.14276e-05, No Iterations 1
DILUPBiCGStab:  Solving for Uy, Initial residual = 0.00406627, Final residual = 0.000174696, No Iterations 1
DILUPBiCGStab:  Solving for Uz, Initial residual = 0.00460975, Final residual = 0.000201621, No Iterations 1
DILUPBiCGStab:  Solving for h, Initial residual = 0.00316077, Final residual = 0.000227362, No Iterations 1
Min/max T:296.818 338.036
GAMG:  Solving for p_rgh, Initial residual = 0.00925956, Final residual = 8.75216e-05, No Iterations 2
GAMG:  Solving for p_rgh, Initial residual = 0.00138274, Final residual = 1.33761e-05, No Iterations 3
GAMG:  Solving for p_rgh, Initial residual = 0.000280521, Final residual = 2.62296e-06, No Iterations 3
time step continuity errors : sum local = 1.54596e-05, global = -2.15947e-06, cumulative = -2.15947e-06
ExecutionTime = 8.71989 s  ClockTime = 18 s

volFieldValue volAvgFinTemperature write:
    volAverage() of T = 336.943

volFieldValue volAvgHeaterTemperature write:
    volAverage() of T = 350.528

surfaceFieldValue averageTempHeaterFinInterface write:
    areaAverage(heater_to_fins) of T = 338.039

Region: fluid Courant Number mean: 1295.36 max: 58433.7
Region: fins Diffusion Number mean: 118.269 max: 143468
Region: heater Diffusion Number mean: 71.2686 max: 522.241
Time = 21s


Solving for solid region fins
GAMG:  Solving for e, Initial residual = 0.254107, Final residual = 0.00711581, No Iterations 1
Min/max T:336.581 340.266

Solving for solid region heater
GAMG:  Solving for e, Initial residual = 0.0622521, Final residual = 2.54539e-05, No Iterations 1
Min/max T:339.571 358.396

Solving for fluid region fluid
DILUPBiCGStab:  Solving for Ux, Initial residual = 0.00197035, Final residual = 8.89344e-05, No Iterations 1
DILUPBiCGStab:  Solving for Uy, Initial residual = 0.00392945, Final residual = 0.000168984, No Iterations 1
DILUPBiCGStab:  Solving for Uz, Initial residual = 0.00442306, Final residual = 0.000193194, No Iterations 1
DILUPBiCGStab:  Solving for h, Initial residual = 0.00301897, Final residual = 0.000217522, No Iterations 1
Min/max T:296.814 340.065
GAMG:  Solving for p_rgh, Initial residual = 0.00895895, Final residual = 8.31483e-05, No Iterations 2
GAMG:  Solving for p_rgh, Initial residual = 0.00129018, Final residual = 1.17667e-05, No Iterations 3
GAMG:  Solving for p_rgh, Initial residual = 0.000265164, Final residual = 2.29029e-06, No Iterations 3
time step continuity errors : sum local = 1.35232e-05, global = -2.244e-06, cumulative = -2.244e-06
ExecutionTime = 8.88168 s  ClockTime = 18 s

volFieldValue volAvgFinTemperature write:
    volAverage() of T = 338.909

volFieldValue volAvgHeaterTemperature write:
    volAverage() of T = 352.548

surfaceFieldValue averageTempHeaterFinInterface write:
    areaAverage(heater_to_fins) of T = 340.064

Region: fluid Courant Number mean: 1295.21 max: 57948.7
Region: fins Diffusion Number mean: 118.269 max: 143468
Region: heater Diffusion Number mean: 71.2686 max: 522.241
Time = 22s


Solving for solid region fins
GAMG:  Solving for e, Initial residual = 0.245113, Final residual = 0.00685632, No Iterations 1
Min/max T:338.531 342.283

Solving for solid region heater
GAMG:  Solving for e, Initial residual = 0.0617861, Final residual = 2.52102e-05, No Iterations 1
Min/max T:341.573 360.403

Solving for fluid region fluid
DILUPBiCGStab:  Solving for Ux, Initial residual = 0.00192247, Final residual = 8.6646e-05, No Iterations 1
DILUPBiCGStab:  Solving for Uy, Initial residual = 0.00380349, Final residual = 0.000163649, No Iterations 1
DILUPBiCGStab:  Solving for Uz, Initial residual = 0.00425126, Final residual = 0.000185299, No Iterations 1
DILUPBiCGStab:  Solving for h, Initial residual = 0.00289173, Final residual = 0.000208666, No Iterations 1
Min/max T:296.81 342.079
GAMG:  Solving for p_rgh, Initial residual = 0.00875436, Final residual = 8.53651e-05, No Iterations 2
GAMG:  Solving for p_rgh, Initial residual = 0.00126663, Final residual = 1.17751e-05, No Iterations 3
GAMG:  Solving for p_rgh, Initial residual = 0.000262602, Final residual = 2.27628e-06, No Iterations 3
time step continuity errors : sum local = 1.34648e-05, global = -2.16726e-06, cumulative = -2.16726e-06
ExecutionTime = 9.05046 s  ClockTime = 19 s

volFieldValue volAvgFinTemperature write:
    volAverage() of T = 340.862

volFieldValue volAvgHeaterTemperature write:
    volAverage() of T = 354.555

surfaceFieldValue averageTempHeaterFinInterface write:
    areaAverage(heater_to_fins) of T = 342.075

Region: fluid Courant Number mean: 1295.07 max: 57525.8
Region: fins Diffusion Number mean: 118.269 max: 143468
Region: heater Diffusion Number mean: 71.2686 max: 522.241
Time = 23s


Solving for solid region fins
GAMG:  Solving for e, Initial residual = 0.236689, Final residual = 0.00661254, No Iterations 1
Min/max T:340.468 344.287

Solving for solid region heater
GAMG:  Solving for e, Initial residual = 0.0613248, Final residual = 2.49875e-05, No Iterations 1
Min/max T:343.56 362.396

Solving for fluid region fluid
DILUPBiCGStab:  Solving for Ux, Initial residual = 0.00187753, Final residual = 8.44995e-05, No Iterations 1
DILUPBiCGStab:  Solving for Uy, Initial residual = 0.00368753, Final residual = 0.000158802, No Iterations 1
DILUPBiCGStab:  Solving for Uz, Initial residual = 0.00409337, Final residual = 0.000177916, No Iterations 1
DILUPBiCGStab:  Solving for h, Initial residual = 0.00277598, Final residual = 0.000200494, No Iterations 1
Min/max T:296.805 344.08
GAMG:  Solving for p_rgh, Initial residual = 0.00849501, Final residual = 3.5071e-05, No Iterations 3
GAMG:  Solving for p_rgh, Initial residual = 0.00125418, Final residual = 7.6448e-06, No Iterations 3
GAMG:  Solving for p_rgh, Initial residual = 0.000205296, Final residual = 1.70052e-06, No Iterations 3
time step continuity errors : sum local = 1.00795e-05, global = -1.82569e-06, cumulative = -1.82569e-06
ExecutionTime = 9.2601 s  ClockTime = 19 s

volFieldValue volAvgFinTemperature write:
    volAverage() of T = 342.801

volFieldValue volAvgHeaterTemperature write:
    volAverage() of T = 356.547

surfaceFieldValue averageTempHeaterFinInterface write:
    areaAverage(heater_to_fins) of T = 344.072

Region: fluid Courant Number mean: 1294.93 max: 57158.2
Region: fins Diffusion Number mean: 118.269 max: 143468
Region: heater Diffusion Number mean: 71.2686 max: 522.241
Time = 24s


Solving for solid region fins
GAMG:  Solving for e, Initial residual = 0.228778, Final residual = 0.00638182, No Iterations 1
Min/max T:342.391 346.277

Solving for solid region heater
GAMG:  Solving for e, Initial residual = 0.0608682, Final residual = 2.4769e-05, No Iterations 1
Min/max T:345.534 364.375

Solving for fluid region fluid
DILUPBiCGStab:  Solving for Ux, Initial residual = 0.00183469, Final residual = 8.2409e-05, No Iterations 1
DILUPBiCGStab:  Solving for Uy, Initial residual = 0.00357654, Final residual = 0.000154068, No Iterations 1
DILUPBiCGStab:  Solving for Uz, Initial residual = 0.00394586, Final residual = 0.000170933, No Iterations 1
DILUPBiCGStab:  Solving for h, Initial residual = 0.00267139, Final residual = 0.000192253, No Iterations 1
Min/max T:296.801 346.066
GAMG:  Solving for p_rgh, Initial residual = 0.00824627, Final residual = 3.40691e-05, No Iterations 3
GAMG:  Solving for p_rgh, Initial residual = 0.00119621, Final residual = 7.39621e-06, No Iterations 3
GAMG:  Solving for p_rgh, Initial residual = 0.000198405, Final residual = 1.67078e-06, No Iterations 3
time step continuity errors : sum local = 9.92531e-06, global = -1.36998e-06, cumulative = -1.36998e-06
ExecutionTime = 9.43634 s  ClockTime = 19 s

volFieldValue volAvgFinTemperature write:
    volAverage() of T = 344.727

volFieldValue volAvgHeaterTemperature write:
    volAverage() of T = 358.526

surfaceFieldValue averageTempHeaterFinInterface write:
    areaAverage(heater_to_fins) of T = 346.055

Region: fluid Courant Number mean: 1294.8 max: 56838.2
Region: fins Diffusion Number mean: 118.269 max: 143468
Region: heater Diffusion Number mean: 71.2686 max: 522.241
Time = 25s


Solving for solid region fins
GAMG:  Solving for e, Initial residual = 0.221342, Final residual = 0.00616572, No Iterations 1
Min/max T:344.301 348.252

Solving for solid region heater
GAMG:  Solving for e, Initial residual = 0.0604159, Final residual = 2.45571e-05, No Iterations 1
Min/max T:347.494 366.341

Solving for fluid region fluid
DILUPBiCGStab:  Solving for Ux, Initial residual = 0.0017937, Final residual = 8.04321e-05, No Iterations 1
DILUPBiCGStab:  Solving for Uy, Initial residual = 0.00346692, Final residual = 0.000149233, No Iterations 1
DILUPBiCGStab:  Solving for Uz, Initial residual = 0.00380666, Final residual = 0.000164374, No Iterations 1
DILUPBiCGStab:  Solving for h, Initial residual = 0.00257282, Final residual = 0.000184676, No Iterations 1
Min/max T:296.797 348.039
GAMG:  Solving for p_rgh, Initial residual = 0.00782222, Final residual = 3.41764e-05, No Iterations 3
GAMG:  Solving for p_rgh, Initial residual = 0.00117771, Final residual = 7.6963e-06, No Iterations 3
GAMG:  Solving for p_rgh, Initial residual = 0.000197835, Final residual = 1.71766e-06, No Iterations 3
time step continuity errors : sum local = 1.02255e-05, global = -1.95646e-06, cumulative = -1.95646e-06
ExecutionTime = 9.60446 s  ClockTime = 20 s

volFieldValue volAvgFinTemperature write:
    volAverage() of T = 346.64

volFieldValue volAvgHeaterTemperature write:
    volAverage() of T = 360.491

surfaceFieldValue averageTempHeaterFinInterface write:
    areaAverage(heater_to_fins) of T = 348.025

Region: fluid Courant Number mean: 1294.66 max: 56557.9
Region: fins Diffusion Number mean: 118.269 max: 143468
Region: heater Diffusion Number mean: 71.2686 max: 522.241
Time = 26s


Solving for solid region fins
GAMG:  Solving for e, Initial residual = 0.214336, Final residual = 0.00595922, No Iterations 1
Min/max T:346.196 350.215

Solving for solid region heater
GAMG:  Solving for e, Initial residual = 0.0599685, Final residual = 2.43374e-05, No Iterations 1
Min/max T:349.441 368.293

Solving for fluid region fluid
DILUPBiCGStab:  Solving for Ux, Initial residual = 0.00175464, Final residual = 7.85526e-05, No Iterations 1
DILUPBiCGStab:  Solving for Uy, Initial residual = 0.00337039, Final residual = 0.000144956, No Iterations 1
DILUPBiCGStab:  Solving for Uz, Initial residual = 0.00367839, Final residual = 0.000158156, No Iterations 1
DILUPBiCGStab:  Solving for h, Initial residual = 0.00247901, Final residual = 0.000177018, No Iterations 1
Min/max T:296.793 349.998
GAMG:  Solving for p_rgh, Initial residual = 0.00749188, Final residual = 3.3523e-05, No Iterations 3
GAMG:  Solving for p_rgh, Initial residual = 0.00113584, Final residual = 7.40893e-06, No Iterations 3
GAMG:  Solving for p_rgh, Initial residual = 0.000194152, Final residual = 1.78927e-06, No Iterations 3
time step continuity errors : sum local = 1.06737e-05, global = -1.97634e-06, cumulative = -1.97634e-06
ExecutionTime = 9.78227 s  ClockTime = 20 s

volFieldValue volAvgFinTemperature write:
    volAverage() of T = 348.539

volFieldValue volAvgHeaterTemperature write:
    volAverage() of T = 362.443

surfaceFieldValue averageTempHeaterFinInterface write:
    areaAverage(heater_to_fins) of T = 349.98

Region: fluid Courant Number mean: 1294.52 max: 56309.6
Region: fins Diffusion Number mean: 118.269 max: 143468
Region: heater Diffusion Number mean: 71.2686 max: 522.241
Time = 27s


Solving for solid region fins
GAMG:  Solving for e, Initial residual = 0.207702, Final residual = 0.00577502, No Iterations 1
Min/max T:348.077 352.163

Solving for solid region heater
GAMG:  Solving for e, Initial residual = 0.0595235, Final residual = 2.41553e-05, No Iterations 1
Min/max T:351.374 370.231

Solving for fluid region fluid
DILUPBiCGStab:  Solving for Ux, Initial residual = 0.00171697, Final residual = 7.67398e-05, No Iterations 1
DILUPBiCGStab:  Solving for Uy, Initial residual = 0.00327672, Final residual = 0.00014094, No Iterations 1
DILUPBiCGStab:  Solving for Uz, Initial residual = 0.00355581, Final residual = 0.000152187, No Iterations 1
DILUPBiCGStab:  Solving for h, Initial residual = 0.00239362, Final residual = 0.000169488, No Iterations 1
Min/max T:296.788 351.944
GAMG:  Solving for p_rgh, Initial residual = 0.0075365, Final residual = 3.48346e-05, No Iterations 3
GAMG:  Solving for p_rgh, Initial residual = 0.00114693, Final residual = 7.70125e-06, No Iterations 3
GAMG:  Solving for p_rgh, Initial residual = 0.000199546, Final residual = 1.01069e-06, No Iterations 4
time step continuity errors : sum local = 6.0401e-06, global = -1.32123e-06, cumulative = -1.32123e-06
ExecutionTime = 9.94323 s  ClockTime = 20 s

volFieldValue volAvgFinTemperature write:
    volAverage() of T = 350.426

volFieldValue volAvgHeaterTemperature write:
    volAverage() of T = 364.381

surfaceFieldValue averageTempHeaterFinInterface write:
    areaAverage(heater_to_fins) of T = 351.923

Region: fluid Courant Number mean: 1294.39 max: 56086.1
Region: fins Diffusion Number mean: 118.269 max: 143468
Region: heater Diffusion Number mean: 71.2686 max: 522.241
Time = 28s


Solving for solid region fins
GAMG:  Solving for e, Initial residual = 0.201435, Final residual = 0.00560039, No Iterations 1
Min/max T:349.945 354.098

Solving for solid region heater
GAMG:  Solving for e, Initial residual = 0.0590823, Final residual = 2.39811e-05, No Iterations 1
Min/max T:353.294 372.156

Solving for fluid region fluid
DILUPBiCGStab:  Solving for Ux, Initial residual = 0.00168132, Final residual = 7.50126e-05, No Iterations 1
DILUPBiCGStab:  Solving for Uy, Initial residual = 0.00318766, Final residual = 0.000137402, No Iterations 1
DILUPBiCGStab:  Solving for Uz, Initial residual = 0.00343581, Final residual = 0.000146532, No Iterations 1
DILUPBiCGStab:  Solving for h, Initial residual = 0.00231075, Final residual = 0.000162915, No Iterations 1
Min/max T:296.784 353.876
GAMG:  Solving for p_rgh, Initial residual = 0.00702707, Final residual = 3.05636e-05, No Iterations 3
GAMG:  Solving for p_rgh, Initial residual = 0.00106445, Final residual = 6.44205e-06, No Iterations 3
GAMG:  Solving for p_rgh, Initial residual = 0.000179118, Final residual = 1.60807e-06, No Iterations 3
time step continuity errors : sum local = 9.62993e-06, global = -1.13126e-06, cumulative = -1.13126e-06
ExecutionTime = 10.0911 s  ClockTime = 21 s

volFieldValue volAvgFinTemperature write:
    volAverage() of T = 352.299

volFieldValue volAvgHeaterTemperature write:
    volAverage() of T = 366.306

surfaceFieldValue averageTempHeaterFinInterface write:
    areaAverage(heater_to_fins) of T = 353.852

Region: fluid Courant Number mean: 1294.26 max: 55880.9
Region: fins Diffusion Number mean: 118.269 max: 143468
Region: heater Diffusion Number mean: 71.2686 max: 522.241
Time = 29s


Solving for solid region fins
GAMG:  Solving for e, Initial residual = 0.195476, Final residual = 0.00543633, No Iterations 1
Min/max T:351.801 356.02

Solving for solid region heater
GAMG:  Solving for e, Initial residual = 0.0586445, Final residual = 2.38168e-05, No Iterations 1
Min/max T:355.201 374.068

Solving for fluid region fluid
DILUPBiCGStab:  Solving for Ux, Initial residual = 0.00164561, Final residual = 7.32795e-05, No Iterations 1
DILUPBiCGStab:  Solving for Uy, Initial residual = 0.00310268, Final residual = 0.000133851, No Iterations 1
DILUPBiCGStab:  Solving for Uz, Initial residual = 0.00332435, Final residual = 0.000141367, No Iterations 1
DILUPBiCGStab:  Solving for h, Initial residual = 0.00223163, Final residual = 0.000156129, No Iterations 1
Min/max T:296.779 355.795
GAMG:  Solving for p_rgh, Initial residual = 0.00671403, Final residual = 3.04378e-05, No Iterations 3
GAMG:  Solving for p_rgh, Initial residual = 0.00100765, Final residual = 6.12682e-06, No Iterations 3
GAMG:  Solving for p_rgh, Initial residual = 0.000171214, Final residual = 1.3779e-06, No Iterations 3
time step continuity errors : sum local = 8.26882e-06, global = -1.50922e-06, cumulative = -1.50922e-06
ExecutionTime = 10.2457 s  ClockTime = 21 s

volFieldValue volAvgFinTemperature write:
    volAverage() of T = 354.159

volFieldValue volAvgHeaterTemperature write:
    volAverage() of T = 368.217

surfaceFieldValue averageTempHeaterFinInterface write:
    areaAverage(heater_to_fins) of T = 355.767

Region: fluid Courant Number mean: 1294.13 max: 55687.9
Region: fins Diffusion Number mean: 118.269 max: 143468
Region: heater Diffusion Number mean: 71.2686 max: 522.241
Time = 30s


Solving for solid region fins
GAMG:  Solving for e, Initial residual = 0.189823, Final residual = 0.00527953, No Iterations 1
Min/max T:353.644 357.929

Solving for solid region heater
GAMG:  Solving for e, Initial residual = 0.0582105, Final residual = 2.36516e-05, No Iterations 1
Min/max T:357.095 375.966

Solving for fluid region fluid
DILUPBiCGStab:  Solving for Ux, Initial residual = 0.00161133, Final residual = 7.16473e-05, No Iterations 1
DILUPBiCGStab:  Solving for Uy, Initial residual = 0.00302156, Final residual = 0.000130355, No Iterations 1
DILUPBiCGStab:  Solving for Uz, Initial residual = 0.00321528, Final residual = 0.000136425, No Iterations 1
DILUPBiCGStab:  Solving for h, Initial residual = 0.0021538, Final residual = 0.000149999, No Iterations 1
Min/max T:296.775 357.7
GAMG:  Solving for p_rgh, Initial residual = 0.00643023, Final residual = 2.91887e-05, No Iterations 3
GAMG:  Solving for p_rgh, Initial residual = 0.000992378, Final residual = 5.89279e-06, No Iterations 3
GAMG:  Solving for p_rgh, Initial residual = 0.000164659, Final residual = 1.32991e-06, No Iterations 3
time step continuity errors : sum local = 7.99537e-06, global = -1.35834e-06, cumulative = -1.35834e-06
ExecutionTime = 10.402 s  ClockTime = 21 s

volFieldValue volAvgFinTemperature write:
    volAverage() of T = 356.007

volFieldValue volAvgHeaterTemperature write:
    volAverage() of T = 370.115

surfaceFieldValue averageTempHeaterFinInterface write:
    areaAverage(heater_to_fins) of T = 357.669

Region: fluid Courant Number mean: 1294 max: 55502.3
Region: fins Diffusion Number mean: 118.269 max: 143468
Region: heater Diffusion Number mean: 71.2686 max: 522.241
Time = 31s


Solving for solid region fins
GAMG:  Solving for e, Initial residual = 0.184435, Final residual = 0.00514205, No Iterations 1
Min/max T:355.474 359.824

Solving for solid region heater
GAMG:  Solving for e, Initial residual = 0.0577775, Final residual = 2.35295e-05, No Iterations 1
Min/max T:358.975 377.852

Solving for fluid region fluid
DILUPBiCGStab:  Solving for Ux, Initial residual = 0.00157796, Final residual = 7.00983e-05, No Iterations 1
DILUPBiCGStab:  Solving for Uy, Initial residual = 0.00294548, Final residual = 0.000127034, No Iterations 1
DILUPBiCGStab:  Solving for Uz, Initial residual = 0.00311285, Final residual = 0.000131711, No Iterations 1
DILUPBiCGStab:  Solving for h, Initial residual = 0.00208058, Final residual = 0.000143978, No Iterations 1
Min/max T:296.771 359.593
GAMG:  Solving for p_rgh, Initial residual = 0.00619876, Final residual = 2.81581e-05, No Iterations 3
GAMG:  Solving for p_rgh, Initial residual = 0.000955681, Final residual = 5.77275e-06, No Iterations 3
GAMG:  Solving for p_rgh, Initial residual = 0.000159604, Final residual = 1.283e-06, No Iterations 3
time step continuity errors : sum local = 7.72444e-06, global = -1.31615e-06, cumulative = -1.31615e-06
ExecutionTime = 10.5414 s  ClockTime = 22 s

volFieldValue volAvgFinTemperature write:
    volAverage() of T = 357.842

volFieldValue volAvgHeaterTemperature write:
    volAverage() of T = 372

surfaceFieldValue averageTempHeaterFinInterface write:
    areaAverage(heater_to_fins) of T = 359.558

Region: fluid Courant Number mean: 1293.87 max: 55319.6
Region: fins Diffusion Number mean: 118.269 max: 143468
Region: heater Diffusion Number mean: 71.2686 max: 522.241
Time = 32s


Solving for solid region fins
GAMG:  Solving for e, Initial residual = 0.179319, Final residual = 0.00500747, No Iterations 1
Min/max T:357.29 361.706

Solving for solid region heater
GAMG:  Solving for e, Initial residual = 0.0573476, Final residual = 2.34048e-05, No Iterations 1
Min/max T:360.842 379.724

Solving for fluid region fluid
DILUPBiCGStab:  Solving for Ux, Initial residual = 0.00154561, Final residual = 6.85857e-05, No Iterations 1
DILUPBiCGStab:  Solving for Uy, Initial residual = 0.00287182, Final residual = 0.000123865, No Iterations 1
DILUPBiCGStab:  Solving for Uz, Initial residual = 0.00301338, Final residual = 0.000127295, No Iterations 1
DILUPBiCGStab:  Solving for h, Initial residual = 0.00201145, Final residual = 0.000138114, No Iterations 1
Min/max T:296.766 361.472
GAMG:  Solving for p_rgh, Initial residual = 0.00600578, Final residual = 2.74604e-05, No Iterations 3
GAMG:  Solving for p_rgh, Initial residual = 0.000925479, Final residual = 5.48554e-06, No Iterations 3
GAMG:  Solving for p_rgh, Initial residual = 0.000155218, Final residual = 1.21645e-06, No Iterations 3
time step continuity errors : sum local = 7.33344e-06, global = -1.31589e-06, cumulative = -1.31589e-06
ExecutionTime = 10.7073 s  ClockTime = 22 s

volFieldValue volAvgFinTemperature write:
    volAverage() of T = 359.663

volFieldValue volAvgHeaterTemperature write:
    volAverage() of T = 373.872

surfaceFieldValue averageTempHeaterFinInterface write:
    areaAverage(heater_to_fins) of T = 361.434

Region: fluid Courant Number mean: 1293.75 max: 55136.5
Region: fins Diffusion Number mean: 118.269 max: 143468
Region: heater Diffusion Number mean: 71.2686 max: 522.241
Time = 33s


Solving for solid region fins
GAMG:  Solving for e, Initial residual = 0.174428, Final residual = 0.00488098, No Iterations 1
Min/max T:359.094 363.575

Solving for solid region heater
GAMG:  Solving for e, Initial residual = 0.0569202, Final residual = 2.32896e-05, No Iterations 1
Min/max T:362.697 381.583

Solving for fluid region fluid
DILUPBiCGStab:  Solving for Ux, Initial residual = 0.00151392, Final residual = 6.71041e-05, No Iterations 1
DILUPBiCGStab:  Solving for Uy, Initial residual = 0.00280262, Final residual = 0.000120857, No Iterations 1
DILUPBiCGStab:  Solving for Uz, Initial residual = 0.00291813, Final residual = 0.00012311, No Iterations 1
DILUPBiCGStab:  Solving for h, Initial residual = 0.00194583, Final residual = 0.000132422, No Iterations 1
Min/max T:296.762 363.338
GAMG:  Solving for p_rgh, Initial residual = 0.00579891, Final residual = 2.68278e-05, No Iterations 3
GAMG:  Solving for p_rgh, Initial residual = 0.000902992, Final residual = 5.38083e-06, No Iterations 3
GAMG:  Solving for p_rgh, Initial residual = 0.000154403, Final residual = 1.20385e-06, No Iterations 3
time step continuity errors : sum local = 7.26766e-06, global = -1.27232e-06, cumulative = -1.27232e-06
ExecutionTime = 10.8743 s  ClockTime = 22 s

volFieldValue volAvgFinTemperature write:
    volAverage() of T = 361.472

volFieldValue volAvgHeaterTemperature write:
    volAverage() of T = 375.731

surfaceFieldValue averageTempHeaterFinInterface write:
    areaAverage(heater_to_fins) of T = 363.297

Region: fluid Courant Number mean: 1293.62 max: 54950.2
Region: fins Diffusion Number mean: 118.269 max: 143468
Region: heater Diffusion Number mean: 71.2686 max: 522.241
Time = 34s


Solving for solid region fins
GAMG:  Solving for e, Initial residual = 0.169754, Final residual = 0.00476314, No Iterations 1
Min/max T:360.886 365.431

Solving for solid region heater
GAMG:  Solving for e, Initial residual = 0.0564951, Final residual = 2.31888e-05, No Iterations 1
Min/max T:364.538 383.429

Solving for fluid region fluid
DILUPBiCGStab:  Solving for Ux, Initial residual = 0.00148284, Final residual = 6.56548e-05, No Iterations 1
DILUPBiCGStab:  Solving for Uy, Initial residual = 0.00273638, Final residual = 0.000118005, No Iterations 1
DILUPBiCGStab:  Solving for Uz, Initial residual = 0.00282722, Final residual = 0.000119131, No Iterations 1
DILUPBiCGStab:  Solving for h, Initial residual = 0.00188261, Final residual = 0.000126927, No Iterations 1
Min/max T:296.758 365.191
GAMG:  Solving for p_rgh, Initial residual = 0.0056421, Final residual = 2.62174e-05, No Iterations 3
GAMG:  Solving for p_rgh, Initial residual = 0.000885351, Final residual = 5.25884e-06, No Iterations 3
GAMG:  Solving for p_rgh, Initial residual = 0.00015077, Final residual = 1.18641e-06, No Iterations 3
time step continuity errors : sum local = 7.17325e-06, global = -1.30072e-06, cumulative = -1.30072e-06
ExecutionTime = 11.0431 s  ClockTime = 23 s

volFieldValue volAvgFinTemperature write:
    volAverage() of T = 363.268

volFieldValue volAvgHeaterTemperature write:
    volAverage() of T = 377.576

surfaceFieldValue averageTempHeaterFinInterface write:
    areaAverage(heater_to_fins) of T = 365.147

Region: fluid Courant Number mean: 1293.5 max: 54758.3
Region: fins Diffusion Number mean: 118.269 max: 143468
Region: heater Diffusion Number mean: 71.2686 max: 522.241
Time = 35s


Solving for solid region fins
GAMG:  Solving for e, Initial residual = 0.165286, Final residual = 0.00465782, No Iterations 1
Min/max T:362.664 367.274

Solving for solid region heater
GAMG:  Solving for e, Initial residual = 0.0560708, Final residual = 2.31222e-05, No Iterations 1
Min/max T:366.367 385.263

Solving for fluid region fluid
DILUPBiCGStab:  Solving for Ux, Initial residual = 0.00145232, Final residual = 6.42403e-05, No Iterations 1
DILUPBiCGStab:  Solving for Uy, Initial residual = 0.00267259, Final residual = 0.000115348, No Iterations 1
DILUPBiCGStab:  Solving for Uz, Initial residual = 0.00273973, Final residual = 0.00011527, No Iterations 1
DILUPBiCGStab:  Solving for h, Initial residual = 0.00182292, Final residual = 0.000121558, No Iterations 1
Min/max T:296.754 367.031
GAMG:  Solving for p_rgh, Initial residual = 0.00548475, Final residual = 2.55486e-05, No Iterations 3
GAMG:  Solving for p_rgh, Initial residual = 0.000871234, Final residual = 5.12443e-06, No Iterations 3
GAMG:  Solving for p_rgh, Initial residual = 0.000147132, Final residual = 1.16265e-06, No Iterations 3
time step continuity errors : sum local = 7.04041e-06, global = -1.29731e-06, cumulative = -1.29731e-06
ExecutionTime = 11.2049 s  ClockTime = 23 s

volFieldValue volAvgFinTemperature write:
    volAverage() of T = 365.052

volFieldValue volAvgHeaterTemperature write:
    volAverage() of T = 379.409

surfaceFieldValue averageTempHeaterFinInterface write:
    areaAverage(heater_to_fins) of T = 366.984

Region: fluid Courant Number mean: 1293.37 max: 54559.5
Region: fins Diffusion Number mean: 118.269 max: 143468
Region: heater Diffusion Number mean: 71.2686 max: 522.241
Time = 36s


Solving for solid region fins
GAMG:  Solving for e, Initial residual = 0.161009, Final residual = 0.00456173, No Iterations 1
Min/max T:364.43 369.104

Solving for solid region heater
GAMG:  Solving for e, Initial residual = 0.0556472, Final residual = 2.30803e-05, No Iterations 1
Min/max T:368.182 387.083

Solving for fluid region fluid
DILUPBiCGStab:  Solving for Ux, Initial residual = 0.00142244, Final residual = 6.28913e-05, No Iterations 1
DILUPBiCGStab:  Solving for Uy, Initial residual = 0.00261098, Final residual = 0.000112782, No Iterations 1
DILUPBiCGStab:  Solving for Uz, Initial residual = 0.00265575, Final residual = 0.000111518, No Iterations 1
DILUPBiCGStab:  Solving for h, Initial residual = 0.00176656, Final residual = 0.000116468, No Iterations 1
Min/max T:296.75 368.858
GAMG:  Solving for p_rgh, Initial residual = 0.0053726, Final residual = 2.47369e-05, No Iterations 3
GAMG:  Solving for p_rgh, Initial residual = 0.000858067, Final residual = 4.95973e-06, No Iterations 3
GAMG:  Solving for p_rgh, Initial residual = 0.000142545, Final residual = 1.11978e-06, No Iterations 3
time step continuity errors : sum local = 6.79108e-06, global = -1.20144e-06, cumulative = -1.20144e-06
ExecutionTime = 11.3722 s  ClockTime = 23 s

volFieldValue volAvgFinTemperature write:
    volAverage() of T = 366.822

volFieldValue volAvgHeaterTemperature write:
    volAverage() of T = 381.229

surfaceFieldValue averageTempHeaterFinInterface write:
    areaAverage(heater_to_fins) of T = 368.808

Region: fluid Courant Number mean: 1293.25 max: 54352.7
Region: fins Diffusion Number mean: 118.269 max: 143468
Region: heater Diffusion Number mean: 71.2686 max: 522.241
Time = 37s


Solving for solid region fins
GAMG:  Solving for e, Initial residual = 0.156901, Final residual = 0.00446185, No Iterations 1
Min/max T:366.183 370.921

Solving for solid region heater
GAMG:  Solving for e, Initial residual = 0.0552269, Final residual = 2.30099e-05, No Iterations 1
Min/max T:369.985 388.89

Solving for fluid region fluid
DILUPBiCGStab:  Solving for Ux, Initial residual = 0.00139342, Final residual = 6.15703e-05, No Iterations 1
DILUPBiCGStab:  Solving for Uy, Initial residual = 0.00255302, Final residual = 0.000110314, No Iterations 1
DILUPBiCGStab:  Solving for Uz, Initial residual = 0.00257507, Final residual = 0.000107892, No Iterations 1
DILUPBiCGStab:  Solving for h, Initial residual = 0.00171268, Final residual = 0.00011163, No Iterations 1
Min/max T:296.746 370.672
GAMG:  Solving for p_rgh, Initial residual = 0.00526401, Final residual = 2.42307e-05, No Iterations 3
GAMG:  Solving for p_rgh, Initial residual = 0.000845289, Final residual = 4.82359e-06, No Iterations 3
GAMG:  Solving for p_rgh, Initial residual = 0.000140079, Final residual = 1.09575e-06, No Iterations 3
time step continuity errors : sum local = 6.65584e-06, global = -1.17234e-06, cumulative = -1.17234e-06
ExecutionTime = 11.5391 s  ClockTime = 23 s

volFieldValue volAvgFinTemperature write:
    volAverage() of T = 368.58

volFieldValue volAvgHeaterTemperature write:
    volAverage() of T = 383.036

surfaceFieldValue averageTempHeaterFinInterface write:
    areaAverage(heater_to_fins) of T = 370.619

Region: fluid Courant Number mean: 1293.13 max: 54137.3
Region: fins Diffusion Number mean: 118.269 max: 143468
Region: heater Diffusion Number mean: 71.2686 max: 522.241
Time = 38s


Solving for solid region fins
GAMG:  Solving for e, Initial residual = 0.152942, Final residual = 0.00436467, No Iterations 1
Min/max T:367.924 372.726

Solving for solid region heater
GAMG:  Solving for e, Initial residual = 0.0548091, Final residual = 2.2932e-05, No Iterations 1
Min/max T:371.774 390.685

Solving for fluid region fluid
DILUPBiCGStab:  Solving for Ux, Initial residual = 0.0013651, Final residual = 6.02759e-05, No Iterations 1
DILUPBiCGStab:  Solving for Uy, Initial residual = 0.00249865, Final residual = 0.000108001, No Iterations 1
DILUPBiCGStab:  Solving for Uz, Initial residual = 0.00249669, Final residual = 0.000104487, No Iterations 1
DILUPBiCGStab:  Solving for h, Initial residual = 0.00166113, Final residual = 0.00010698, No Iterations 1
Min/max T:296.742 372.474
GAMG:  Solving for p_rgh, Initial residual = 0.00517294, Final residual = 2.38919e-05, No Iterations 3
GAMG:  Solving for p_rgh, Initial residual = 0.00084043, Final residual = 4.81489e-06, No Iterations 3
GAMG:  Solving for p_rgh, Initial residual = 0.000138459, Final residual = 1.08557e-06, No Iterations 3
time step continuity errors : sum local = 6.6049e-06, global = -1.19004e-06, cumulative = -1.19004e-06
ExecutionTime = 11.6904 s  ClockTime = 24 s

volFieldValue volAvgFinTemperature write:
    volAverage() of T = 370.325

volFieldValue volAvgHeaterTemperature write:
    volAverage() of T = 384.83

surfaceFieldValue averageTempHeaterFinInterface write:
    areaAverage(heater_to_fins) of T = 372.417

Region: fluid Courant Number mean: 1293.01 max: 53912.9
Region: fins Diffusion Number mean: 118.269 max: 143468
Region: heater Diffusion Number mean: 71.2686 max: 522.241
Time = 39s


Solving for solid region fins
GAMG:  Solving for e, Initial residual = 0.149142, Final residual = 0.00426918, No Iterations 1
Min/max T:369.652 374.517

Solving for solid region heater
GAMG:  Solving for e, Initial residual = 0.054394, Final residual = 2.28451e-05, No Iterations 1
Min/max T:373.552 392.466

Solving for fluid region fluid
DILUPBiCGStab:  Solving for Ux, Initial residual = 0.00133731, Final residual = 5.90043e-05, No Iterations 1
DILUPBiCGStab:  Solving for Uy, Initial residual = 0.002447, Final residual = 0.000105832, No Iterations 1
DILUPBiCGStab:  Solving for Uz, Initial residual = 0.00242237, Final residual = 0.00010129, No Iterations 1
DILUPBiCGStab:  Solving for h, Initial residual = 0.00161228, Final residual = 0.000102637, No Iterations 1
Min/max T:296.739 374.262
GAMG:  Solving for p_rgh, Initial residual = 0.00524769, Final residual = 2.44146e-05, No Iterations 3
GAMG:  Solving for p_rgh, Initial residual = 0.000866775, Final residual = 5.20813e-06, No Iterations 3
GAMG:  Solving for p_rgh, Initial residual = 0.000141435, Final residual = 1.17545e-06, No Iterations 3
time step continuity errors : sum local = 7.16441e-06, global = -1.35218e-06, cumulative = -1.35218e-06
ExecutionTime = 11.8532 s  ClockTime = 24 s

volFieldValue volAvgFinTemperature write:
    volAverage() of T = 372.057

volFieldValue volAvgHeaterTemperature write:
    volAverage() of T = 386.612

surfaceFieldValue averageTempHeaterFinInterface write:
    areaAverage(heater_to_fins) of T = 374.203

Region: fluid Courant Number mean: 1292.9 max: 53679.6
Region: fins Diffusion Number mean: 118.269 max: 143468
Region: heater Diffusion Number mean: 71.2686 max: 522.241
Time = 40s


Solving for solid region fins
GAMG:  Solving for e, Initial residual = 0.145493, Final residual = 0.00416767, No Iterations 1
Min/max T:371.367 376.296

Solving for solid region heater
GAMG:  Solving for e, Initial residual = 0.0539833, Final residual = 2.27158e-05, No Iterations 1
Min/max T:375.316 394.235

Solving for fluid region fluid
DILUPBiCGStab:  Solving for Ux, Initial residual = 0.00131054, Final residual = 5.7763e-05, No Iterations 1
DILUPBiCGStab:  Solving for Uy, Initial residual = 0.00239677, Final residual = 0.000103686, No Iterations 1
DILUPBiCGStab:  Solving for Uz, Initial residual = 0.0023511, Final residual = 9.82449e-05, No Iterations 1
DILUPBiCGStab:  Solving for h, Initial residual = 0.00156534, Final residual = 9.85734e-05, No Iterations 1
Min/max T:296.735 376.038
GAMG:  Solving for p_rgh, Initial residual = 0.00505447, Final residual = 2.25855e-05, No Iterations 3
GAMG:  Solving for p_rgh, Initial residual = 0.00084863, Final residual = 4.80846e-06, No Iterations 3
GAMG:  Solving for p_rgh, Initial residual = 0.000134761, Final residual = 1.1037e-06, No Iterations 3
time step continuity errors : sum local = 6.73781e-06, global = -1.12631e-06, cumulative = -1.12631e-06
ExecutionTime = 12.0364 s  ClockTime = 24 s

volFieldValue volAvgFinTemperature write:
    volAverage() of T = 373.777

volFieldValue volAvgHeaterTemperature write:
    volAverage() of T = 388.38

surfaceFieldValue averageTempHeaterFinInterface write:
    areaAverage(heater_to_fins) of T = 375.975

Region: fluid Courant Number mean: 1292.78 max: 53438.3
Region: fins Diffusion Number mean: 118.269 max: 143468
Region: heater Diffusion Number mean: 71.2686 max: 522.241
Time = 41s


Solving for solid region fins
GAMG:  Solving for e, Initial residual = 0.141968, Final residual = 0.00408798, No Iterations 1
Min/max T:373.07 378.062

Solving for solid region heater
GAMG:  Solving for e, Initial residual = 0.0535718, Final residual = 2.26598e-05, No Iterations 1
Min/max T:377.068 395.992

Solving for fluid region fluid
DILUPBiCGStab:  Solving for Ux, Initial residual = 0.00128338, Final residual = 5.64841e-05, No Iterations 1
DILUPBiCGStab:  Solving for Uy, Initial residual = 0.00234886, Final residual = 0.000101692, No Iterations 1
DILUPBiCGStab:  Solving for Uz, Initial residual = 0.00228116, Final residual = 9.52873e-05, No Iterations 1
DILUPBiCGStab:  Solving for h, Initial residual = 0.00151988, Final residual = 9.45965e-05, No Iterations 1
Min/max T:296.731 377.802
GAMG:  Solving for p_rgh, Initial residual = 0.0048913, Final residual = 2.17185e-05, No Iterations 3
GAMG:  Solving for p_rgh, Initial residual = 0.000791078, Final residual = 4.1931e-06, No Iterations 3
GAMG:  Solving for p_rgh, Initial residual = 0.000130514, Final residual = 9.85336e-07, No Iterations 3
time step continuity errors : sum local = 6.02371e-06, global = -1.06383e-06, cumulative = -1.06383e-06
ExecutionTime = 12.2069 s  ClockTime = 25 s

volFieldValue volAvgFinTemperature write:
    volAverage() of T = 375.485

volFieldValue volAvgHeaterTemperature write:
    volAverage() of T = 390.136

surfaceFieldValue averageTempHeaterFinInterface write:
    areaAverage(heater_to_fins) of T = 377.736

Region: fluid Courant Number mean: 1292.67 max: 53189.6
Region: fins Diffusion Number mean: 118.269 max: 143468
Region: heater Diffusion Number mean: 71.2686 max: 522.241
Time = 42s


Solving for solid region fins
GAMG:  Solving for e, Initial residual = 0.138595, Final residual = 0.00400242, No Iterations 1
Min/max T:374.761 379.816

Solving for solid region heater
GAMG:  Solving for e, Initial residual = 0.0531642, Final residual = 2.25754e-05, No Iterations 1
Min/max T:378.807 397.736

Solving for fluid region fluid
DILUPBiCGStab:  Solving for Ux, Initial residual = 0.00125729, Final residual = 5.52848e-05, No Iterations 1
DILUPBiCGStab:  Solving for Uy, Initial residual = 0.00229918, Final residual = 9.95796e-05, No Iterations 1
DILUPBiCGStab:  Solving for Uz, Initial residual = 0.00221326, Final residual = 9.24606e-05, No Iterations 1
DILUPBiCGStab:  Solving for h, Initial residual = 0.00147626, Final residual = 9.07851e-05, No Iterations 1
Min/max T:296.728 379.554
GAMG:  Solving for p_rgh, Initial residual = 0.00478341, Final residual = 2.18262e-05, No Iterations 3
GAMG:  Solving for p_rgh, Initial residual = 0.000755439, Final residual = 4.03089e-06, No Iterations 3
GAMG:  Solving for p_rgh, Initial residual = 0.000126252, Final residual = 9.49345e-07, No Iterations 3
time step continuity errors : sum local = 5.81128e-06, global = -1.00374e-06, cumulative = -1.00374e-06
ExecutionTime = 12.3643 s  ClockTime = 25 s

volFieldValue volAvgFinTemperature write:
    volAverage() of T = 377.18

volFieldValue volAvgHeaterTemperature write:
    volAverage() of T = 391.88

surfaceFieldValue averageTempHeaterFinInterface write:
    areaAverage(heater_to_fins) of T = 379.483

Region: fluid Courant Number mean: 1292.56 max: 52934
Region: fins Diffusion Number mean: 118.269 max: 143468
Region: heater Diffusion Number mean: 71.2686 max: 522.241
Time = 43s


Solving for solid region fins
GAMG:  Solving for e, Initial residual = 0.135336, Final residual = 0.00391294, No Iterations 1
Min/max T:376.439 381.557

Solving for solid region heater
GAMG:  Solving for e, Initial residual = 0.0527608, Final residual = 2.24585e-05, No Iterations 1
Min/max T:380.534 399.468

Solving for fluid region fluid
DILUPBiCGStab:  Solving for Ux, Initial residual = 0.00123174, Final residual = 5.4111e-05, No Iterations 1
DILUPBiCGStab:  Solving for Uy, Initial residual = 0.0022526, Final residual = 9.75632e-05, No Iterations 1
DILUPBiCGStab:  Solving for Uz, Initial residual = 0.00214716, Final residual = 8.97329e-05, No Iterations 1
DILUPBiCGStab:  Solving for h, Initial residual = 0.00143484, Final residual = 8.70674e-05, No Iterations 1
Min/max T:296.724 381.293
GAMG:  Solving for p_rgh, Initial residual = 0.00466903, Final residual = 2.15298e-05, No Iterations 3
GAMG:  Solving for p_rgh, Initial residual = 0.000733282, Final residual = 3.91635e-06, No Iterations 3
GAMG:  Solving for p_rgh, Initial residual = 0.000123382, Final residual = 9.17253e-07, No Iterations 3
time step continuity errors : sum local = 5.62191e-06, global = -1.03585e-06, cumulative = -1.03585e-06
ExecutionTime = 12.5258 s  ClockTime = 25 s

volFieldValue volAvgFinTemperature write:
    volAverage() of T = 378.863

volFieldValue volAvgHeaterTemperature write:
    volAverage() of T = 393.611

surfaceFieldValue averageTempHeaterFinInterface write:
    areaAverage(heater_to_fins) of T = 381.218

Region: fluid Courant Number mean: 1292.45 max: 52672.1
Region: fins Diffusion Number mean: 118.269 max: 143468
Region: heater Diffusion Number mean: 71.2686 max: 522.241
Time = 44s


Solving for solid region fins
GAMG:  Solving for e, Initial residual = 0.132195, Final residual = 0.00382502, No Iterations 1
Min/max T:378.105 383.286

Solving for solid region heater
GAMG:  Solving for e, Initial residual = 0.0523608, Final residual = 2.2329e-05, No Iterations 1
Min/max T:382.248 401.187

Solving for fluid region fluid
DILUPBiCGStab:  Solving for Ux, Initial residual = 0.00120691, Final residual = 5.29638e-05, No Iterations 1
DILUPBiCGStab:  Solving for Uy, Initial residual = 0.00220738, Final residual = 9.55787e-05, No Iterations 1
DILUPBiCGStab:  Solving for Uz, Initial residual = 0.00208215, Final residual = 8.71212e-05, No Iterations 1
DILUPBiCGStab:  Solving for h, Initial residual = 0.00139486, Final residual = 8.34031e-05, No Iterations 1
Min/max T:296.721 383.02
GAMG:  Solving for p_rgh, Initial residual = 0.00459258, Final residual = 2.11631e-05, No Iterations 3
GAMG:  Solving for p_rgh, Initial residual = 0.000717855, Final residual = 3.8103e-06, No Iterations 3
GAMG:  Solving for p_rgh, Initial residual = 0.000120995, Final residual = 8.94494e-07, No Iterations 3
time step continuity errors : sum local = 5.48924e-06, global = -1.0071e-06, cumulative = -1.0071e-06
ExecutionTime = 12.6801 s  ClockTime = 26 s

volFieldValue volAvgFinTemperature write:
    volAverage() of T = 380.534

volFieldValue volAvgHeaterTemperature write:
    volAverage() of T = 395.33

surfaceFieldValue averageTempHeaterFinInterface write:
    areaAverage(heater_to_fins) of T = 382.941

Region: fluid Courant Number mean: 1292.34 max: 52404.8
Region: fins Diffusion Number mean: 118.269 max: 143468
Region: heater Diffusion Number mean: 71.2686 max: 522.241
Time = 45s


Solving for solid region fins
GAMG:  Solving for e, Initial residual = 0.129173, Final residual = 0.00374, No Iterations 1
Min/max T:379.76 385.004

Solving for solid region heater
GAMG:  Solving for e, Initial residual = 0.051964, Final residual = 2.21944e-05, No Iterations 1
Min/max T:383.951 402.894

Solving for fluid region fluid
DILUPBiCGStab:  Solving for Ux, Initial residual = 0.00118305, Final residual = 5.18422e-05, No Iterations 1
DILUPBiCGStab:  Solving for Uy, Initial residual = 0.00216265, Final residual = 9.35569e-05, No Iterations 1
DILUPBiCGStab:  Solving for Uz, Initial residual = 0.00201852, Final residual = 8.45519e-05, No Iterations 1
DILUPBiCGStab:  Solving for h, Initial residual = 0.00135653, Final residual = 7.99391e-05, No Iterations 1
Min/max T:296.717 384.735
GAMG:  Solving for p_rgh, Initial residual = 0.00453133, Final residual = 2.07205e-05, No Iterations 3
GAMG:  Solving for p_rgh, Initial residual = 0.000702909, Final residual = 3.69193e-06, No Iterations 3
[...]
DILUPBiCGStab:  Solving for Uy, Initial residual = 5.75589e-09, Final residual = 5.75589e-09, No Iterations 0
DILUPBiCGStab:  Solving for Uz, Initial residual = 1.89883e-09, Final residual = 1.89883e-09, No Iterations 0
DILUPBiCGStab:  Solving for h, Initial residual = 0.000340556, Final residual = 1.43579e-05, No Iterations 1
Min/max T:296.27 618.856
GAMG:  Solving for p_rgh, Initial residual = 1.47408e-07, Final residual = 7.36654e-09, No Iterations 1
GAMG:  Solving for p_rgh, Initial residual = 5.71074e-08, Final residual = 5.71074e-08, No Iterations 0
GAMG:  Solving for p_rgh, Initial residual = 5.71074e-08, Final residual = 5.71074e-08, No Iterations 0
time step continuity errors : sum local = 3.77461e-07, global = -6.245e-10, cumulative = -6.245e-10
ExecutionTime = 384.537 s  ClockTime = 738 s

volFieldValue volAvgFinTemperature write:
    volAverage() of T = 608.504

volFieldValue volAvgHeaterTemperature write:
    volAverage() of T = 630.008

surfaceFieldValue averageTempHeaterFinInterface write:
    areaAverage(heater_to_fins) of T = 618.159

Region: fluid Courant Number mean: 1284.55 max: 39237.7
Region: fins Diffusion Number mean: 118.269 max: 143468
Region: heater Diffusion Number mean: 71.2686 max: 522.241
Time = 1990s


Solving for solid region fins
GAMG:  Solving for e, Initial residual = 9.94724e-07, Final residual = 9.94724e-07, No Iterations 0
Min/max T:605.259 620.069

Solving for solid region heater
GAMG:  Solving for e, Initial residual = 4.68688e-07, Final residual = 4.68688e-07, No Iterations 0
Min/max T:615.15 635.942

Solving for fluid region fluid
DILUPBiCGStab:  Solving for Ux, Initial residual = 4.85004e-10, Final residual = 4.85004e-10, No Iterations 0
DILUPBiCGStab:  Solving for Uy, Initial residual = 6.02561e-09, Final residual = 6.02561e-09, No Iterations 0
DILUPBiCGStab:  Solving for Uz, Initial residual = 1.96126e-09, Final residual = 1.96126e-09, No Iterations 0
DILUPBiCGStab:  Solving for h, Initial residual = 0.000340555, Final residual = 1.4358e-05, No Iterations 1
Min/max T:296.27 618.856
GAMG:  Solving for p_rgh, Initial residual = 1.29638e-07, Final residual = 6.9512e-09, No Iterations 1
GAMG:  Solving for p_rgh, Initial residual = 5.22127e-08, Final residual = 5.22127e-08, No Iterations 0
GAMG:  Solving for p_rgh, Initial residual = 5.22127e-08, Final residual = 5.22127e-08, No Iterations 0
time step continuity errors : sum local = 3.45109e-07, global = 5.40918e-11, cumulative = 5.40918e-11
ExecutionTime = 384.741 s  ClockTime = 738 s

volFieldValue volAvgFinTemperature write:
    volAverage() of T = 608.504

volFieldValue volAvgHeaterTemperature write:
    volAverage() of T = 630.008

surfaceFieldValue averageTempHeaterFinInterface write:
    areaAverage(heater_to_fins) of T = 618.159

Region: fluid Courant Number mean: 1284.55 max: 39237.7
Region: fins Diffusion Number mean: 118.269 max: 143468
Region: heater Diffusion Number mean: 71.2686 max: 522.241
Time = 1991s


Solving for solid region fins
GAMG:  Solving for e, Initial residual = 9.94637e-07, Final residual = 9.94637e-07, No Iterations 0
Min/max T:605.259 620.069

Solving for solid region heater
GAMG:  Solving for e, Initial residual = 4.68688e-07, Final residual = 4.68688e-07, No Iterations 0
Min/max T:615.15 635.942

Solving for fluid region fluid
DILUPBiCGStab:  Solving for Ux, Initial residual = 3.86729e-10, Final residual = 3.86729e-10, No Iterations 0
DILUPBiCGStab:  Solving for Uy, Initial residual = 4.88929e-09, Final residual = 4.88929e-09, No Iterations 0
DILUPBiCGStab:  Solving for Uz, Initial residual = 1.57946e-09, Final residual = 1.57946e-09, No Iterations 0
DILUPBiCGStab:  Solving for h, Initial residual = 0.000340556, Final residual = 1.43579e-05, No Iterations 1
Min/max T:296.27 618.856
GAMG:  Solving for p_rgh, Initial residual = 1.2146e-07, Final residual = 6.29523e-09, No Iterations 1
GAMG:  Solving for p_rgh, Initial residual = 4.73015e-08, Final residual = 4.73015e-08, No Iterations 0
GAMG:  Solving for p_rgh, Initial residual = 4.73015e-08, Final residual = 4.73015e-08, No Iterations 0
time step continuity errors : sum local = 3.12648e-07, global = -2.37987e-10, cumulative = -2.37987e-10
ExecutionTime = 384.934 s  ClockTime = 739 s

volFieldValue volAvgFinTemperature write:
    volAverage() of T = 608.504

volFieldValue volAvgHeaterTemperature write:
    volAverage() of T = 630.008

surfaceFieldValue averageTempHeaterFinInterface write:
    areaAverage(heater_to_fins) of T = 618.159

Region: fluid Courant Number mean: 1284.55 max: 39237.7
Region: fins Diffusion Number mean: 118.269 max: 143468
Region: heater Diffusion Number mean: 71.2686 max: 522.241
Time = 1992s


Solving for solid region fins
GAMG:  Solving for e, Initial residual = 9.94702e-07, Final residual = 9.94702e-07, No Iterations 0
Min/max T:605.259 620.069

Solving for solid region heater
GAMG:  Solving for e, Initial residual = 4.68688e-07, Final residual = 4.68688e-07, No Iterations 0
Min/max T:615.15 635.942

Solving for fluid region fluid
DILUPBiCGStab:  Solving for Ux, Initial residual = 3.94697e-10, Final residual = 3.94697e-10, No Iterations 0
DILUPBiCGStab:  Solving for Uy, Initial residual = 4.87348e-09, Final residual = 4.87348e-09, No Iterations 0
DILUPBiCGStab:  Solving for Uz, Initial residual = 1.59206e-09, Final residual = 1.59206e-09, No Iterations 0
DILUPBiCGStab:  Solving for h, Initial residual = 0.000340555, Final residual = 1.4358e-05, No Iterations 1
Min/max T:296.27 618.856
GAMG:  Solving for p_rgh, Initial residual = 1.07172e-07, Final residual = 5.5718e-09, No Iterations 1
GAMG:  Solving for p_rgh, Initial residual = 4.29534e-08, Final residual = 4.29534e-08, No Iterations 0
GAMG:  Solving for p_rgh, Initial residual = 4.29534e-08, Final residual = 4.29534e-08, No Iterations 0
time step continuity errors : sum local = 2.83908e-07, global = 2.81035e-10, cumulative = 2.81035e-10
ExecutionTime = 385.136 s  ClockTime = 739 s

volFieldValue volAvgFinTemperature write:
    volAverage() of T = 608.504

volFieldValue volAvgHeaterTemperature write:
    volAverage() of T = 630.008

surfaceFieldValue averageTempHeaterFinInterface write:
    areaAverage(heater_to_fins) of T = 618.159

Region: fluid Courant Number mean: 1284.55 max: 39237.7
Region: fins Diffusion Number mean: 118.269 max: 143468
Region: heater Diffusion Number mean: 71.2686 max: 522.241
Time = 1993s


Solving for solid region fins
GAMG:  Solving for e, Initial residual = 9.94613e-07, Final residual = 9.94613e-07, No Iterations 0
Min/max T:605.259 620.069

Solving for solid region heater
GAMG:  Solving for e, Initial residual = 4.68688e-07, Final residual = 4.68688e-07, No Iterations 0
Min/max T:615.15 635.942

Solving for fluid region fluid
DILUPBiCGStab:  Solving for Ux, Initial residual = 3.23186e-10, Final residual = 3.23186e-10, No Iterations 0
DILUPBiCGStab:  Solving for Uy, Initial residual = 4.12693e-09, Final residual = 4.12693e-09, No Iterations 0
DILUPBiCGStab:  Solving for Uz, Initial residual = 1.31595e-09, Final residual = 1.31595e-09, No Iterations 0
DILUPBiCGStab:  Solving for h, Initial residual = 0.000340556, Final residual = 1.43579e-05, No Iterations 1
Min/max T:296.27 618.856
GAMG:  Solving for p_rgh, Initial residual = 1.00171e-07, Final residual = 5.22143e-09, No Iterations 1
GAMG:  Solving for p_rgh, Initial residual = 3.91461e-08, Final residual = 3.91461e-08, No Iterations 0
GAMG:  Solving for p_rgh, Initial residual = 3.91461e-08, Final residual = 3.91461e-08, No Iterations 0
time step continuity errors : sum local = 2.58743e-07, global = -2.42637e-11, cumulative = -2.42637e-11
ExecutionTime = 385.378 s  ClockTime = 740 s

volFieldValue volAvgFinTemperature write:
    volAverage() of T = 608.504

volFieldValue volAvgHeaterTemperature write:
    volAverage() of T = 630.008

surfaceFieldValue averageTempHeaterFinInterface write:
    areaAverage(heater_to_fins) of T = 618.159

Region: fluid Courant Number mean: 1284.55 max: 39237.7
Region: fins Diffusion Number mean: 118.269 max: 143468
Region: heater Diffusion Number mean: 71.2686 max: 522.241
Time = 1994s


Solving for solid region fins
GAMG:  Solving for e, Initial residual = 9.94684e-07, Final residual = 9.94684e-07, No Iterations 0
Min/max T:605.259 620.069

Solving for solid region heater
GAMG:  Solving for e, Initial residual = 4.68688e-07, Final residual = 4.68688e-07, No Iterations 0
Min/max T:615.15 635.942

Solving for fluid region fluid
DILUPBiCGStab:  Solving for Ux, Initial residual = 3.22864e-10, Final residual = 3.22864e-10, No Iterations 0
DILUPBiCGStab:  Solving for Uy, Initial residual = 4.02757e-09, Final residual = 4.02757e-09, No Iterations 0
DILUPBiCGStab:  Solving for Uz, Initial residual = 1.33167e-09, Final residual = 1.33167e-09, No Iterations 0
DILUPBiCGStab:  Solving for h, Initial residual = 0.000340555, Final residual = 1.43579e-05, No Iterations 1
Min/max T:296.27 618.856
GAMG:  Solving for p_rgh, Initial residual = 8.86617e-08, Final residual = 8.86617e-08, No Iterations 0
GAMG:  Solving for p_rgh, Initial residual = 8.86617e-08, Final residual = 8.86617e-08, No Iterations 0
GAMG:  Solving for p_rgh, Initial residual = 8.86617e-08, Final residual = 8.86617e-08, No Iterations 0
time step continuity errors : sum local = 5.86025e-07, global = -2.35612e-10, cumulative = -2.35612e-10
ExecutionTime = 385.683 s  ClockTime = 740 s

volFieldValue volAvgFinTemperature write:
    volAverage() of T = 608.504

volFieldValue volAvgHeaterTemperature write:
    volAverage() of T = 630.008

surfaceFieldValue averageTempHeaterFinInterface write:
    areaAverage(heater_to_fins) of T = 618.159

Region: fluid Courant Number mean: 1284.55 max: 39237.7
Region: fins Diffusion Number mean: 118.269 max: 143468
Region: heater Diffusion Number mean: 71.2686 max: 522.241
Time = 1995s


Solving for solid region fins
GAMG:  Solving for e, Initial residual = 9.94601e-07, Final residual = 9.94601e-07, No Iterations 0
Min/max T:605.259 620.069

Solving for solid region heater
GAMG:  Solving for e, Initial residual = 4.68688e-07, Final residual = 4.68688e-07, No Iterations 0
Min/max T:615.15 635.942

Solving for fluid region fluid
DILUPBiCGStab:  Solving for Ux, Initial residual = 3.57832e-10, Final residual = 3.57832e-10, No Iterations 0
DILUPBiCGStab:  Solving for Uy, Initial residual = 4.05073e-09, Final residual = 4.05073e-09, No Iterations 0
DILUPBiCGStab:  Solving for Uz, Initial residual = 1.40851e-09, Final residual = 1.40851e-09, No Iterations 0
DILUPBiCGStab:  Solving for h, Initial residual = 0.000340555, Final residual = 1.43579e-05, No Iterations 1
Min/max T:296.27 618.856
GAMG:  Solving for p_rgh, Initial residual = 1.74854e-07, Final residual = 1.15044e-08, No Iterations 1
GAMG:  Solving for p_rgh, Initial residual = 7.54521e-08, Final residual = 7.54521e-08, No Iterations 0
GAMG:  Solving for p_rgh, Initial residual = 7.54521e-08, Final residual = 7.54521e-08, No Iterations 0
time step continuity errors : sum local = 4.98714e-07, global = 6.12471e-10, cumulative = 6.12471e-10
ExecutionTime = 385.921 s  ClockTime = 741 s

volFieldValue volAvgFinTemperature write:
    volAverage() of T = 608.504

volFieldValue volAvgHeaterTemperature write:
    volAverage() of T = 630.008

surfaceFieldValue averageTempHeaterFinInterface write:
    areaAverage(heater_to_fins) of T = 618.159

Region: fluid Courant Number mean: 1284.55 max: 39237.7
Region: fins Diffusion Number mean: 118.269 max: 143468
Region: heater Diffusion Number mean: 71.2686 max: 522.241
Time = 1996s


Solving for solid region fins
GAMG:  Solving for e, Initial residual = 9.94842e-07, Final residual = 9.94842e-07, No Iterations 0
Min/max T:605.259 620.069

Solving for solid region heater
GAMG:  Solving for e, Initial residual = 4.68688e-07, Final residual = 4.68688e-07, No Iterations 0
Min/max T:615.15 635.942

Solving for fluid region fluid
DILUPBiCGStab:  Solving for Ux, Initial residual = 9.27076e-10, Final residual = 9.27076e-10, No Iterations 0
DILUPBiCGStab:  Solving for Uy, Initial residual = 1.22997e-08, Final residual = 1.22997e-08, No Iterations 0
DILUPBiCGStab:  Solving for Uz, Initial residual = 4.09266e-09, Final residual = 4.09266e-09, No Iterations 0
DILUPBiCGStab:  Solving for h, Initial residual = 0.000340556, Final residual = 1.4358e-05, No Iterations 1
Min/max T:296.27 618.856
GAMG:  Solving for p_rgh, Initial residual = 2.22429e-07, Final residual = 1.33812e-08, No Iterations 1
GAMG:  Solving for p_rgh, Initial residual = 9.05038e-08, Final residual = 9.05038e-08, No Iterations 0
GAMG:  Solving for p_rgh, Initial residual = 9.05038e-08, Final residual = 9.05038e-08, No Iterations 0
time step continuity errors : sum local = 5.98201e-07, global = -1.99578e-10, cumulative = -1.99578e-10
ExecutionTime = 386.18 s  ClockTime = 741 s

volFieldValue volAvgFinTemperature write:
    volAverage() of T = 608.504

volFieldValue volAvgHeaterTemperature write:
    volAverage() of T = 630.008

surfaceFieldValue averageTempHeaterFinInterface write:
    areaAverage(heater_to_fins) of T = 618.159

Region: fluid Courant Number mean: 1284.55 max: 39237.7
Region: fins Diffusion Number mean: 118.269 max: 143468
Region: heater Diffusion Number mean: 71.2686 max: 522.241
Time = 1997s


Solving for solid region fins
GAMG:  Solving for e, Initial residual = 9.94776e-07, Final residual = 9.94776e-07, No Iterations 0
Min/max T:605.259 620.069

Solving for solid region heater
GAMG:  Solving for e, Initial residual = 4.68688e-07, Final residual = 4.68688e-07, No Iterations 0
Min/max T:615.15 635.942

Solving for fluid region fluid
DILUPBiCGStab:  Solving for Ux, Initial residual = 5.9985e-10, Final residual = 5.9985e-10, No Iterations 0
DILUPBiCGStab:  Solving for Uy, Initial residual = 7.36454e-09, Final residual = 7.36454e-09, No Iterations 0
DILUPBiCGStab:  Solving for Uz, Initial residual = 2.36777e-09, Final residual = 2.36777e-09, No Iterations 0
DILUPBiCGStab:  Solving for h, Initial residual = 0.000340555, Final residual = 1.4358e-05, No Iterations 1
Min/max T:296.27 618.856
GAMG:  Solving for p_rgh, Initial residual = 1.91198e-07, Final residual = 9.02376e-09, No Iterations 1
GAMG:  Solving for p_rgh, Initial residual = 7.14765e-08, Final residual = 7.14765e-08, No Iterations 0
GAMG:  Solving for p_rgh, Initial residual = 7.14765e-08, Final residual = 7.14765e-08, No Iterations 0
time step continuity errors : sum local = 4.72436e-07, global = 5.81803e-10, cumulative = 5.81803e-10
ExecutionTime = 386.506 s  ClockTime = 742 s

volFieldValue volAvgFinTemperature write:
    volAverage() of T = 608.504

volFieldValue volAvgHeaterTemperature write:
    volAverage() of T = 630.008

surfaceFieldValue averageTempHeaterFinInterface write:
    areaAverage(heater_to_fins) of T = 618.159

Region: fluid Courant Number mean: 1284.55 max: 39237.7
Region: fins Diffusion Number mean: 118.269 max: 143468
Region: heater Diffusion Number mean: 71.2686 max: 522.241
Time = 1998s


Solving for solid region fins
GAMG:  Solving for e, Initial residual = 9.94735e-07, Final residual = 9.94735e-07, No Iterations 0
Min/max T:605.259 620.069

Solving for solid region heater
GAMG:  Solving for e, Initial residual = 4.68688e-07, Final residual = 4.68688e-07, No Iterations 0
Min/max T:615.15 635.942

Solving for fluid region fluid
DILUPBiCGStab:  Solving for Ux, Initial residual = 5.89075e-10, Final residual = 5.89075e-10, No Iterations 0
DILUPBiCGStab:  Solving for Uy, Initial residual = 7.27392e-09, Final residual = 7.27392e-09, No Iterations 0
DILUPBiCGStab:  Solving for Uz, Initial residual = 2.3621e-09, Final residual = 2.3621e-09, No Iterations 0
DILUPBiCGStab:  Solving for h, Initial residual = 0.000340556, Final residual = 1.4358e-05, No Iterations 1
Min/max T:296.27 618.856
GAMG:  Solving for p_rgh, Initial residual = 1.70118e-07, Final residual = 9.17909e-09, No Iterations 1
GAMG:  Solving for p_rgh, Initial residual = 7.04202e-08, Final residual = 7.04202e-08, No Iterations 0
GAMG:  Solving for p_rgh, Initial residual = 7.04202e-08, Final residual = 7.04202e-08, No Iterations 0
time step continuity errors : sum local = 4.65455e-07, global = -3.57716e-11, cumulative = -3.57716e-11
ExecutionTime = 386.73 s  ClockTime = 742 s

volFieldValue volAvgFinTemperature write:
    volAverage() of T = 608.504

volFieldValue volAvgHeaterTemperature write:
    volAverage() of T = 630.008

surfaceFieldValue averageTempHeaterFinInterface write:
    areaAverage(heater_to_fins) of T = 618.159

Region: fluid Courant Number mean: 1284.55 max: 39237.7
Region: fins Diffusion Number mean: 118.269 max: 143468
Region: heater Diffusion Number mean: 71.2686 max: 522.241
Time = 1999s


Solving for solid region fins
GAMG:  Solving for e, Initial residual = 9.94732e-07, Final residual = 9.94732e-07, No Iterations 0
Min/max T:605.259 620.069

Solving for solid region heater
GAMG:  Solving for e, Initial residual = 4.68688e-07, Final residual = 4.68688e-07, No Iterations 0
Min/max T:615.15 635.942

Solving for fluid region fluid
DILUPBiCGStab:  Solving for Ux, Initial residual = 5.58507e-10, Final residual = 5.58507e-10, No Iterations 0
DILUPBiCGStab:  Solving for Uy, Initial residual = 7.24864e-09, Final residual = 7.24864e-09, No Iterations 0
DILUPBiCGStab:  Solving for Uz, Initial residual = 2.38136e-09, Final residual = 2.38136e-09, No Iterations 0
DILUPBiCGStab:  Solving for h, Initial residual = 0.000340555, Final residual = 1.4358e-05, No Iterations 1
Min/max T:296.27 618.856
GAMG:  Solving for p_rgh, Initial residual = 1.59072e-07, Final residual = 8.62276e-09, No Iterations 1
GAMG:  Solving for p_rgh, Initial residual = 6.24227e-08, Final residual = 6.24227e-08, No Iterations 0
GAMG:  Solving for p_rgh, Initial residual = 6.24227e-08, Final residual = 6.24227e-08, No Iterations 0
time step continuity errors : sum local = 4.12594e-07, global = 5.7638e-10, cumulative = 5.7638e-10
ExecutionTime = 386.926 s  ClockTime = 743 s

volFieldValue volAvgFinTemperature write:
    volAverage() of T = 608.504

volFieldValue volAvgHeaterTemperature write:
    volAverage() of T = 630.008

surfaceFieldValue averageTempHeaterFinInterface write:
    areaAverage(heater_to_fins) of T = 618.159

Region: fluid Courant Number mean: 1284.55 max: 39237.7
Region: fins Diffusion Number mean: 118.269 max: 143468
Region: heater Diffusion Number mean: 71.2686 max: 522.241
Time = 2000s


Solving for solid region fins
GAMG:  Solving for e, Initial residual = 9.94667e-07, Final residual = 9.94667e-07, No Iterations 0
Min/max T:605.259 620.069

Solving for solid region heater
GAMG:  Solving for e, Initial residual = 4.68688e-07, Final residual = 4.68688e-07, No Iterations 0
Min/max T:615.15 635.942

Solving for fluid region fluid
DILUPBiCGStab:  Solving for Ux, Initial residual = 4.63188e-10, Final residual = 4.63188e-10, No Iterations 0
DILUPBiCGStab:  Solving for Uy, Initial residual = 5.61354e-09, Final residual = 5.61354e-09, No Iterations 0
DILUPBiCGStab:  Solving for Uz, Initial residual = 1.85241e-09, Final residual = 1.85241e-09, No Iterations 0
DILUPBiCGStab:  Solving for h, Initial residual = 0.000340556, Final residual = 1.43579e-05, No Iterations 1
Min/max T:296.27 618.856
GAMG:  Solving for p_rgh, Initial residual = 1.45364e-07, Final residual = 7.22902e-09, No Iterations 1
GAMG:  Solving for p_rgh, Initial residual = 5.64354e-08, Final residual = 5.64354e-08, No Iterations 0
GAMG:  Solving for p_rgh, Initial residual = 5.64354e-08, Final residual = 5.64354e-08, No Iterations 0
time step continuity errors : sum local = 3.7302e-07, global = 6.81373e-12, cumulative = 6.81373e-12
ExecutionTime = 387.578 s  ClockTime = 744 s

volFieldValue volAvgFinTemperature write:
    volAverage() of T = 608.504

volFieldValue volAvgHeaterTemperature write:
    volAverage() of T = 630.008

surfaceFieldValue averageTempHeaterFinInterface write:
    areaAverage(heater_to_fins) of T = 618.159

End

