/*---------------------------------------------------------------------------*\
  =========                 |
  \\      /  F ield         | OpenFOAM: The Open Source CFD Toolbox
   \\    /   O peration     | Website:  https://openfoam.org
    \\  /    A nd           | Version:  10
     \\/     M anipulation  |
\*---------------------------------------------------------------------------*/
Build  : 10-c4cf895ad8fa
Exec   : chtMultiRegionFoam
Date   : Nov 01 2023
Time   : 09:05:17
Host   : "alexesn"
PID    : 7529
I/O    : uncollated
Case   : /mnt/c/Users/sasch/OneDrive/Desktop/MEPhI/Project_practice/FOAM_project/heatExchanger/all_auto/case_20_0
nProcs : 1
sigFpe : Enabling floating point exception trapping (FOAM_SIGFPE).
fileModificationChecking : Monitoring run-time modified files using timeStampMaster (fileModificationSkew 10)
allowSystemOperations : Allowing user-supplied system call operations

// * * * * * * * * * * * * * * * * * * * * * * * * * * * * * * * * * * * * * //
Create time

Create fluid mesh for region fluid for time = 0

Create solid mesh for region fins for time = 0

Create solid mesh for region heater for time = 0


PIMPLE: Region fluid
PIMPLE: No convergence criteria found


PIMPLE: Region fins
PIMPLE: No convergence criteria found


PIMPLE: Region heater
PIMPLE: No convergence criteria found


PIMPLE: Operating solver in steady-state mode with 1 outer corrector
PIMPLE: Operating solver in SIMPLE mode


*** Reading fluid mesh thermophysical properties for region fluid

    Adding to thermoFluid

Selecting thermodynamics package 
{
    type            heRhoThermo;
    mixture         pureMixture;
    transport       const;
    thermo          hConst;
    equationOfState rhoConst;
    specie          specie;
    energy          sensibleEnthalpy;
}

    Adding to rhoFluid

    Adding to UFluid

    Adding to phiFluid

    Adding to gFluid

    Adding to hRefFluid

    Adding to pRefFluid

    Adding to ghFluid

    Adding to ghfFluid

    Adding to turbulenceFluid

Selecting turbulence model type laminar
Selecting laminar stress model Stokes
    Adding to thermophysicalTransport

Selecting thermophysical transport type laminar
Selecting default laminar thermophysical transport model unityLewisFourier
    Adding to reactionFluid

Combustion model not active: combustionProperties not found
Selecting combustion model none
    Adding to KFluid

    Adding to dpdtFluid

    Adding to fieldsFluid

    Adding MRF

No MRF models present

    Adding fvModelsFluid

    Adding fvConstraintsFluid

Creating fvConstraints from "system/fvConstraints"

Selecting finite volume constraint type limitTemperature
    Name: limitT
    - selecting all cells
    - selected 10777 cell(s) with volume 0.00149667
*** Reading solid mesh thermophysical properties for region fins

    Adding to thermoSolid

Selecting thermodynamics package 
{
    type            heSolidThermo;
    mixture         pureMixture;
    transport       constIsoSolid;
    thermo          eConst;
    equationOfState rhoConst;
    specie          specie;
    energy          sensibleInternalEnergy;
}

    Adding to fvModelsSolid

    Adding fvConstraintsSolid

*** Reading solid mesh thermophysical properties for region heater

    Adding to thermoSolid

Selecting thermodynamics package 
{
    type            heSolidThermo;
    mixture         pureMixture;
    transport       constIsoSolid;
    thermo          eConst;
    equationOfState rhoConst;
    specie          specie;
    energy          sensibleInternalEnergy;
}

    Adding to fvModelsSolid

Creating fvModels from "constant/fvModels"

Selecting finite volume model type heatSource
    Name: energySource
    - selecting all cells
    - selected 592 cell(s) with volume 1e-06
    Adding fvConstraintsSolid

Region: fluid Courant Number mean: 1340.81 max: 100706
Region: fins Diffusion Number mean: 131.174 max: 167602
Region: heater Diffusion Number mean: 70.4493 max: 522.211








surfaceFieldValue averageTempHeaterFinInterface:
    total faces  = 56
    total area   = 0.0001


volFieldValue volAvgFinTemperature write:
    volAverage() of T = 296.9

volFieldValue volAvgHeaterTemperature write:
    volAverage() of T = 296.9

surfaceFieldValue averageTempHeaterFinInterface write:
    areaAverage(heater_to_fins) of T = 296.9

Region: fluid Courant Number mean: 1340.81 max: 100706
Region: fins Diffusion Number mean: 131.174 max: 167602
Region: heater Diffusion Number mean: 70.4493 max: 522.211
Time = 1s


Solving for solid region fins
GAMG:  Solving for e, Initial residual = 0.983305, Final residual = 0.0429453, No Iterations 1
Min/max T:296.9 296.9

Solving for solid region heater
GAMG:  Solving for e, Initial residual = 1, Final residual = 0.054137, No Iterations 3
Min/max T:296.9 314.517

Solving for fluid region fluid
DILUPBiCGStab:  Solving for Ux, Initial residual = 1, Final residual = 0.0227348, No Iterations 1
DILUPBiCGStab:  Solving for Uy, Initial residual = 1, Final residual = 0.0306812, No Iterations 1
DILUPBiCGStab:  Solving for Uz, Initial residual = 1, Final residual = 0.0310993, No Iterations 1
DILUPBiCGStab:  Solving for h, Initial residual = 1, Final residual = 0.0633336, No Iterations 1
Min/max T:295.613 297.758
GAMG:  Solving for p_rgh, Initial residual = 1, Final residual = 0.00755557, No Iterations 7
GAMG:  Solving for p_rgh, Initial residual = 0.558021, Final residual = 0.00350548, No Iterations 2
GAMG:  Solving for p_rgh, Initial residual = 0.04497, Final residual = 0.000225007, No Iterations 3
time step continuity errors : sum local = 0.00837851, global = -0.00342053, cumulative = -0.00342053
ExecutionTime = 6.43689 s  ClockTime = 11 s

volFieldValue volAvgFinTemperature write:
    volAverage() of T = 296.9

volFieldValue volAvgHeaterTemperature write:
    volAverage() of T = 308.862

surfaceFieldValue averageTempHeaterFinInterface write:
    areaAverage(heater_to_fins) of T = 296.9

Region: fluid Courant Number mean: 1342.72 max: 101868
Region: fins Diffusion Number mean: 131.174 max: 167602
Region: heater Diffusion Number mean: 70.4493 max: 522.211
Time = 2s


Solving for solid region fins
GAMG:  Solving for e, Initial residual = 1, Final residual = 0.0316818, No Iterations 1
Min/max T:296.898 299.528

Solving for solid region heater
GAMG:  Solving for e, Initial residual = 0.2505, Final residual = 0.00593081, No Iterations 1
Min/max T:298.779 316.719

Solving for fluid region fluid
DILUPBiCGStab:  Solving for Ux, Initial residual = 0.216195, Final residual = 0.00944714, No Iterations 1
DILUPBiCGStab:  Solving for Uy, Initial residual = 0.326172, Final residual = 0.0139635, No Iterations 1
DILUPBiCGStab:  Solving for Uz, Initial residual = 0.409826, Final residual = 0.0177202, No Iterations 1
DILUPBiCGStab:  Solving for h, Initial residual = 0.137164, Final residual = 0.0103536, No Iterations 1
Min/max T:293.841 299.323
GAMG:  Solving for p_rgh, Initial residual = 0.258265, Final residual = 0.00158086, No Iterations 6
GAMG:  Solving for p_rgh, Initial residual = 0.778043, Final residual = 0.00530013, No Iterations 2
GAMG:  Solving for p_rgh, Initial residual = 0.140254, Final residual = 0.0010402, No Iterations 3
time step continuity errors : sum local = 0.0201429, global = 0.00673067, cumulative = 0.00673067
ExecutionTime = 6.63685 s  ClockTime = 12 s

volFieldValue volAvgFinTemperature write:
    volAverage() of T = 299.15

volFieldValue volAvgHeaterTemperature write:
    volAverage() of T = 311.194

surfaceFieldValue averageTempHeaterFinInterface write:
    areaAverage(heater_to_fins) of T = 299.195

Region: fluid Courant Number mean: 1342.58 max: 99607.6
Region: fins Diffusion Number mean: 131.174 max: 167602
Region: heater Diffusion Number mean: 70.4493 max: 522.211
Time = 3s


Solving for solid region fins
GAMG:  Solving for e, Initial residual = 0.584318, Final residual = 0.0111993, No Iterations 1
Min/max T:299.014 301.777

Solving for solid region heater
GAMG:  Solving for e, Initial residual = 0.0891892, Final residual = 0.00252243, No Iterations 1
Min/max T:301.041 319.332

Solving for fluid region fluid
DILUPBiCGStab:  Solving for Ux, Initial residual = 0.0877004, Final residual = 0.00380405, No Iterations 1
DILUPBiCGStab:  Solving for Uy, Initial residual = 0.240951, Final residual = 0.010167, No Iterations 1
DILUPBiCGStab:  Solving for Uz, Initial residual = 0.394636, Final residual = 0.0172206, No Iterations 1
DILUPBiCGStab:  Solving for h, Initial residual = 0.0780421, Final residual = 0.00648933, No Iterations 1
Min/max T:296.268 301.592
GAMG:  Solving for p_rgh, Initial residual = 0.235561, Final residual = 0.00125791, No Iterations 6
GAMG:  Solving for p_rgh, Initial residual = 0.778054, Final residual = 0.00529546, No Iterations 2
GAMG:  Solving for p_rgh, Initial residual = 0.136828, Final residual = 0.000910726, No Iterations 3
time step continuity errors : sum local = 0.00726719, global = -0.0023528, cumulative = -0.0023528
ExecutionTime = 6.85487 s  ClockTime = 12 s

volFieldValue volAvgFinTemperature write:
    volAverage() of T = 301.361

volFieldValue volAvgHeaterTemperature write:
    volAverage() of T = 313.691

surfaceFieldValue averageTempHeaterFinInterface write:
    areaAverage(heater_to_fins) of T = 301.456

Region: fluid Courant Number mean: 1342.15 max: 91010
Region: fins Diffusion Number mean: 131.174 max: 167602
Region: heater Diffusion Number mean: 70.4493 max: 522.211
Time = 4s


Solving for solid region fins
GAMG:  Solving for e, Initial residual = 0.5234, Final residual = 0.0102129, No Iterations 1
Min/max T:301.239 304.057

Solving for solid region heater
GAMG:  Solving for e, Initial residual = 0.0777512, Final residual = 0.00141176, No Iterations 1
Min/max T:303.307 321.785

Solving for fluid region fluid
DILUPBiCGStab:  Solving for Ux, Initial residual = 0.036053, Final residual = 0.00157517, No Iterations 1
DILUPBiCGStab:  Solving for Uy, Initial residual = 0.0766948, Final residual = 0.00327611, No Iterations 1
DILUPBiCGStab:  Solving for Uz, Initial residual = 0.109331, Final residual = 0.00477067, No Iterations 1
DILUPBiCGStab:  Solving for h, Initial residual = 0.0282607, Final residual = 0.00239371, No Iterations 1
Min/max T:296.304 303.857
GAMG:  Solving for p_rgh, Initial residual = 0.196331, Final residual = 0.0010235, No Iterations 6
GAMG:  Solving for p_rgh, Initial residual = 0.44801, Final residual = 0.00302305, No Iterations 2
GAMG:  Solving for p_rgh, Initial residual = 0.0628009, Final residual = 0.00036703, No Iterations 3
time step continuity errors : sum local = 0.00253094, global = 0.00081079, cumulative = 0.00081079
ExecutionTime = 7.11556 s  ClockTime = 13 s

volFieldValue volAvgFinTemperature write:
    volAverage() of T = 303.575

volFieldValue volAvgHeaterTemperature write:
    volAverage() of T = 316.081

surfaceFieldValue averageTempHeaterFinInterface write:
    areaAverage(heater_to_fins) of T = 303.723

Region: fluid Courant Number mean: 1341.99 max: 88433.7
Region: fins Diffusion Number mean: 131.174 max: 167602
Region: heater Diffusion Number mean: 70.4493 max: 522.211
Time = 5s


Solving for solid region fins
GAMG:  Solving for e, Initial residual = 0.494145, Final residual = 0.011098, No Iterations 1
Min/max T:303.486 306.321

Solving for solid region heater
GAMG:  Solving for e, Initial residual = 0.0735019, Final residual = 0.000856574, No Iterations 1
Min/max T:305.574 324.161

Solving for fluid region fluid
DILUPBiCGStab:  Solving for Ux, Initial residual = 0.0150899, Final residual = 0.000642902, No Iterations 1
DILUPBiCGStab:  Solving for Uy, Initial residual = 0.038953, Final residual = 0.00154285, No Iterations 1
DILUPBiCGStab:  Solving for Uz, Initial residual = 0.0541049, Final residual = 0.00235221, No Iterations 1
DILUPBiCGStab:  Solving for h, Initial residual = 0.0170755, Final residual = 0.00160713, No Iterations 1
Min/max T:296.792 306.11
GAMG:  Solving for p_rgh, Initial residual = 0.120586, Final residual = 0.00112787, No Iterations 5
GAMG:  Solving for p_rgh, Initial residual = 0.25187, Final residual = 0.00168769, No Iterations 2
GAMG:  Solving for p_rgh, Initial residual = 0.0325554, Final residual = 0.000182147, No Iterations 3
time step continuity errors : sum local = 0.000986536, global = -0.000263097, cumulative = -0.000263097
ExecutionTime = 7.34504 s  ClockTime = 13 s

volFieldValue volAvgFinTemperature write:
    volAverage() of T = 305.777

volFieldValue volAvgHeaterTemperature write:
    volAverage() of T = 318.414

surfaceFieldValue averageTempHeaterFinInterface write:
    areaAverage(heater_to_fins) of T = 305.985

Region: fluid Courant Number mean: 1341.77 max: 85490.6
Region: fins Diffusion Number mean: 131.174 max: 167602
Region: heater Diffusion Number mean: 70.4493 max: 522.211
Time = 6s


Solving for solid region fins
GAMG:  Solving for e, Initial residual = 0.471039, Final residual = 0.0115021, No Iterations 1
Min/max T:305.662 308.567

Solving for solid region heater
GAMG:  Solving for e, Initial residual = 0.0716963, Final residual = 0.000520974, No Iterations 1
Min/max T:307.831 326.486

Solving for fluid region fluid
DILUPBiCGStab:  Solving for Ux, Initial residual = 0.00737824, Final residual = 0.000319868, No Iterations 1
DILUPBiCGStab:  Solving for Uy, Initial residual = 0.0186299, Final residual = 0.000753519, No Iterations 1
DILUPBiCGStab:  Solving for Uz, Initial residual = 0.0256622, Final residual = 0.00113645, No Iterations 1
DILUPBiCGStab:  Solving for h, Initial residual = 0.0122981, Final residual = 0.00111607, No Iterations 1
Min/max T:296.802 308.347
GAMG:  Solving for p_rgh, Initial residual = 0.0713188, Final residual = 0.000571327, No Iterations 5
GAMG:  Solving for p_rgh, Initial residual = 0.0992331, Final residual = 0.000627963, No Iterations 2
GAMG:  Solving for p_rgh, Initial residual = 0.0122372, Final residual = 5.62561e-05, No Iterations 3
time step continuity errors : sum local = 0.000324129, global = -1.78527e-06, cumulative = -1.78527e-06
ExecutionTime = 7.54791 s  ClockTime = 13 s

volFieldValue volAvgFinTemperature write:
    volAverage() of T = 307.967

volFieldValue volAvgHeaterTemperature write:
    volAverage() of T = 320.707

surfaceFieldValue averageTempHeaterFinInterface write:
    areaAverage(heater_to_fins) of T = 308.238

Region: fluid Courant Number mean: 1341.61 max: 83789.1
Region: fins Diffusion Number mean: 131.174 max: 167602
Region: heater Diffusion Number mean: 70.4493 max: 522.211
Time = 7s


Solving for solid region fins
GAMG:  Solving for e, Initial residual = 0.448853, Final residual = 0.0116473, No Iterations 1
Min/max T:307.828 310.796

Solving for solid region heater
GAMG:  Solving for e, Initial residual = 0.0703778, Final residual = 0.000318666, No Iterations 1
Min/max T:310.052 328.768

Solving for fluid region fluid
DILUPBiCGStab:  Solving for Ux, Initial residual = 0.00375701, Final residual = 0.000148365, No Iterations 1
DILUPBiCGStab:  Solving for Uy, Initial residual = 0.0111604, Final residual = 0.00035571, No Iterations 1
DILUPBiCGStab:  Solving for Uz, Initial residual = 0.014222, Final residual = 0.000549141, No Iterations 1
DILUPBiCGStab:  Solving for h, Initial residual = 0.0096608, Final residual = 0.000812247, No Iterations 1
Min/max T:296.86 310.567
GAMG:  Solving for p_rgh, Initial residual = 0.0434926, Final residual = 0.00025673, No Iterations 5
GAMG:  Solving for p_rgh, Initial residual = 0.044093, Final residual = 0.00027237, No Iterations 2
GAMG:  Solving for p_rgh, Initial residual = 0.00547503, Final residual = 2.40668e-05, No Iterations 3
time step continuity errors : sum local = 0.000131562, global = 3.63045e-05, cumulative = 3.63045e-05
ExecutionTime = 7.72436 s  ClockTime = 14 s

volFieldValue volAvgFinTemperature write:
    volAverage() of T = 310.141

volFieldValue volAvgHeaterTemperature write:
    volAverage() of T = 322.969

surfaceFieldValue averageTempHeaterFinInterface write:
    areaAverage(heater_to_fins) of T = 310.478

Region: fluid Courant Number mean: 1341.44 max: 82402.3
Region: fins Diffusion Number mean: 131.174 max: 167602
Region: heater Diffusion Number mean: 70.4493 max: 522.211
Time = 8s


Solving for solid region fins
GAMG:  Solving for e, Initial residual = 0.427689, Final residual = 0.0115762, No Iterations 1
Min/max T:309.98 313.009

Solving for solid region heater
GAMG:  Solving for e, Initial residual = 0.0693913, Final residual = 0.000195053, No Iterations 1
Min/max T:312.26 331.018

Solving for fluid region fluid
DILUPBiCGStab:  Solving for Ux, Initial residual = 0.00314059, Final residual = 0.000136489, No Iterations 1
DILUPBiCGStab:  Solving for Uy, Initial residual = 0.0093616, Final residual = 0.00033653, No Iterations 1
DILUPBiCGStab:  Solving for Uz, Initial residual = 0.0126472, Final residual = 0.000532554, No Iterations 1
DILUPBiCGStab:  Solving for h, Initial residual = 0.0079387, Final residual = 0.000640657, No Iterations 1
Min/max T:296.851 312.771
GAMG:  Solving for p_rgh, Initial residual = 0.0321371, Final residual = 0.000279095, No Iterations 4
GAMG:  Solving for p_rgh, Initial residual = 0.0171073, Final residual = 0.000116789, No Iterations 2
GAMG:  Solving for p_rgh, Initial residual = 0.00219703, Final residual = 1.90757e-05, No Iterations 3
time step continuity errors : sum local = 0.000107346, global = -2.07144e-05, cumulative = -2.07144e-05
ExecutionTime = 7.88513 s  ClockTime = 14 s

volFieldValue volAvgFinTemperature write:
    volAverage() of T = 312.299

volFieldValue volAvgHeaterTemperature write:
    volAverage() of T = 325.207

surfaceFieldValue averageTempHeaterFinInterface write:
    areaAverage(heater_to_fins) of T = 312.704

Region: fluid Courant Number mean: 1341.29 max: 81363.5
Region: fins Diffusion Number mean: 131.174 max: 167602
Region: heater Diffusion Number mean: 70.4493 max: 522.211
Time = 9s


Solving for solid region fins
GAMG:  Solving for e, Initial residual = 0.407223, Final residual = 0.0113649, No Iterations 1
Min/max T:312.118 315.204

Solving for solid region heater
GAMG:  Solving for e, Initial residual = 0.0685902, Final residual = 0.000119711, No Iterations 1
Min/max T:314.455 333.242

Solving for fluid region fluid
DILUPBiCGStab:  Solving for Ux, Initial residual = 0.00263034, Final residual = 0.000112997, No Iterations 1
DILUPBiCGStab:  Solving for Uy, Initial residual = 0.00753927, Final residual = 0.000262569, No Iterations 1
DILUPBiCGStab:  Solving for Uz, Initial residual = 0.00988785, Final residual = 0.000403051, No Iterations 1
DILUPBiCGStab:  Solving for h, Initial residual = 0.00679239, Final residual = 0.000529776, No Iterations 1
Min/max T:296.84 314.957
GAMG:  Solving for p_rgh, Initial residual = 0.0248961, Final residual = 0.000126754, No Iterations 4
GAMG:  Solving for p_rgh, Initial residual = 0.00834594, Final residual = 6.20164e-05, No Iterations 2
GAMG:  Solving for p_rgh, Initial residual = 0.00111443, Final residual = 9.60494e-06, No Iterations 3
time step continuity errors : sum local = 5.35154e-05, global = 1.91712e-06, cumulative = 1.91712e-06
ExecutionTime = 8.05392 s  ClockTime = 14 s

volFieldValue volAvgFinTemperature write:
    volAverage() of T = 314.442

volFieldValue volAvgHeaterTemperature write:
    volAverage() of T = 327.424

surfaceFieldValue averageTempHeaterFinInterface write:
    areaAverage(heater_to_fins) of T = 314.915

Region: fluid Courant Number mean: 1341.14 max: 80513.9
Region: fins Diffusion Number mean: 131.174 max: 167602
Region: heater Diffusion Number mean: 70.4493 max: 522.211
Time = 10s


Solving for solid region fins
GAMG:  Solving for e, Initial residual = 0.387862, Final residual = 0.0110634, No Iterations 1
Min/max T:314.242 317.382

Solving for solid region heater
GAMG:  Solving for e, Initial residual = 0.0679028, Final residual = 7.54638e-05, No Iterations 1
Min/max T:316.636 335.445

Solving for fluid region fluid
DILUPBiCGStab:  Solving for Ux, Initial residual = 0.00248222, Final residual = 0.00010908, No Iterations 1
DILUPBiCGStab:  Solving for Uy, Initial residual = 0.00698467, Final residual = 0.000261068, No Iterations 1
DILUPBiCGStab:  Solving for Uz, Initial residual = 0.00949778, Final residual = 0.000402341, No Iterations 1
DILUPBiCGStab:  Solving for h, Initial residual = 0.00597056, Final residual = 0.000451965, No Iterations 1
Min/max T:296.822 317.138
GAMG:  Solving for p_rgh, Initial residual = 0.0205702, Final residual = 0.000134671, No Iterations 3
GAMG:  Solving for p_rgh, Initial residual = 0.00422532, Final residual = 2.22627e-05, No Iterations 3
GAMG:  Solving for p_rgh, Initial residual = 0.000705356, Final residual = 4.21843e-06, No Iterations 3
time step continuity errors : sum local = 2.37265e-05, global = 2.69576e-06, cumulative = 2.69576e-06
ExecutionTime = 8.20511 s  ClockTime = 15 s

volFieldValue volAvgFinTemperature write:
    volAverage() of T = 316.569

volFieldValue volAvgHeaterTemperature write:
    volAverage() of T = 329.622

surfaceFieldValue averageTempHeaterFinInterface write:
    areaAverage(heater_to_fins) of T = 317.112

Region: fluid Courant Number mean: 1341 max: 79800.1
Region: fins Diffusion Number mean: 131.174 max: 167602
Region: heater Diffusion Number mean: 70.4493 max: 522.211
Time = 11s


Solving for solid region fins
GAMG:  Solving for e, Initial residual = 0.369677, Final residual = 0.0107202, No Iterations 1
Min/max T:316.352 319.546

Solving for solid region heater
GAMG:  Solving for e, Initial residual = 0.0672842, Final residual = 5.03153e-05, No Iterations 1
Min/max T:318.803 337.627

Solving for fluid region fluid
DILUPBiCGStab:  Solving for Ux, Initial residual = 0.00232481, Final residual = 0.000102133, No Iterations 1
DILUPBiCGStab:  Solving for Uy, Initial residual = 0.0062715, Final residual = 0.000239568, No Iterations 1
DILUPBiCGStab:  Solving for Uz, Initial residual = 0.00844913, Final residual = 0.000358986, No Iterations 1
DILUPBiCGStab:  Solving for h, Initial residual = 0.00536963, Final residual = 0.000394344, No Iterations 1
Min/max T:296.811 319.318
GAMG:  Solving for p_rgh, Initial residual = 0.0177631, Final residual = 7.17639e-05, No Iterations 3
GAMG:  Solving for p_rgh, Initial residual = 0.00316584, Final residual = 2.91855e-05, No Iterations 2
GAMG:  Solving for p_rgh, Initial residual = 0.000460923, Final residual = 4.50424e-06, No Iterations 3
time step continuity errors : sum local = 2.53602e-05, global = 1.66882e-06, cumulative = 1.66882e-06
ExecutionTime = 8.36077 s  ClockTime = 15 s

volFieldValue volAvgFinTemperature write:
    volAverage() of T = 318.68

volFieldValue volAvgHeaterTemperature write:
    volAverage() of T = 331.802

surfaceFieldValue averageTempHeaterFinInterface write:
    areaAverage(heater_to_fins) of T = 319.293

Region: fluid Courant Number mean: 1340.86 max: 79185.6
Region: fins Diffusion Number mean: 131.174 max: 167602
Region: heater Diffusion Number mean: 70.4493 max: 522.211
Time = 12s


Solving for solid region fins
GAMG:  Solving for e, Initial residual = 0.352529, Final residual = 0.0103525, No Iterations 1
Min/max T:318.448 321.719

Solving for solid region heater
GAMG:  Solving for e, Initial residual = 0.0667102, Final residual = 3.60144e-05, No Iterations 1
Min/max T:320.956 339.793

Solving for fluid region fluid
DILUPBiCGStab:  Solving for Ux, Initial residual = 0.00221187, Final residual = 9.7426e-05, No Iterations 1
DILUPBiCGStab:  Solving for Uy, Initial residual = 0.00586569, Final residual = 0.000231038, No Iterations 1
DILUPBiCGStab:  Solving for Uz, Initial residual = 0.00797488, Final residual = 0.000341969, No Iterations 1
DILUPBiCGStab:  Solving for h, Initial residual = 0.0048919, Final residual = 0.000348464, No Iterations 1
Min/max T:296.803 321.485
GAMG:  Solving for p_rgh, Initial residual = 0.0157276, Final residual = 0.000144798, No Iterations 2
GAMG:  Solving for p_rgh, Initial residual = 0.00263988, Final residual = 1.65848e-05, No Iterations 3
GAMG:  Solving for p_rgh, Initial residual = 0.000476525, Final residual = 3.46254e-06, No Iterations 3
time step continuity errors : sum local = 1.95649e-05, global = -7.29292e-07, cumulative = -7.29292e-07
ExecutionTime = 8.51896 s  ClockTime = 15 s

volFieldValue volAvgFinTemperature write:
    volAverage() of T = 320.776

volFieldValue volAvgHeaterTemperature write:
    volAverage() of T = 333.965

surfaceFieldValue averageTempHeaterFinInterface write:
    areaAverage(heater_to_fins) of T = 321.458

Region: fluid Courant Number mean: 1340.72 max: 78645.9
Region: fins Diffusion Number mean: 131.174 max: 167602
Region: heater Diffusion Number mean: 70.4493 max: 522.211
Time = 13s


Solving for solid region fins
GAMG:  Solving for e, Initial residual = 0.336103, Final residual = 0.00996798, No Iterations 1
Min/max T:320.53 323.876

Solving for solid region heater
GAMG:  Solving for e, Initial residual = 0.0661652, Final residual = 2.79815e-05, No Iterations 1
Min/max T:323.094 341.941

Solving for fluid region fluid
DILUPBiCGStab:  Solving for Ux, Initial residual = 0.00211107, Final residual = 9.29947e-05, No Iterations 1
DILUPBiCGStab:  Solving for Uy, Initial residual = 0.00548305, Final residual = 0.000219744, No Iterations 1
DILUPBiCGStab:  Solving for Uz, Initial residual = 0.00739384, Final residual = 0.000318504, No Iterations 1
DILUPBiCGStab:  Solving for h, Initial residual = 0.00450256, Final residual = 0.000313483, No Iterations 1
Min/max T:296.8 323.635
GAMG:  Solving for p_rgh, Initial residual = 0.0139515, Final residual = 0.000111777, No Iterations 2
GAMG:  Solving for p_rgh, Initial residual = 0.00221368, Final residual = 1.40422e-05, No Iterations 3
GAMG:  Solving for p_rgh, Initial residual = 0.00042203, Final residual = 3.11182e-06, No Iterations 3
time step continuity errors : sum local = 1.76386e-05, global = -9.66418e-07, cumulative = -9.66418e-07
ExecutionTime = 8.67686 s  ClockTime = 16 s

volFieldValue volAvgFinTemperature write:
    volAverage() of T = 322.857

volFieldValue volAvgHeaterTemperature write:
    volAverage() of T = 336.113

surfaceFieldValue averageTempHeaterFinInterface write:
    areaAverage(heater_to_fins) of T = 323.609

Region: fluid Courant Number mean: 1340.59 max: 78167.7
Region: fins Diffusion Number mean: 131.174 max: 167602
Region: heater Diffusion Number mean: 70.4493 max: 522.211
Time = 14s


Solving for solid region fins
GAMG:  Solving for e, Initial residual = 0.320676, Final residual = 0.00958058, No Iterations 1
Min/max T:322.598 326.017

Solving for solid region heater
GAMG:  Solving for e, Initial residual = 0.065639, Final residual = 2.34465e-05, No Iterations 1
Min/max T:325.218 344.073

Solving for fluid region fluid
DILUPBiCGStab:  Solving for Ux, Initial residual = 0.00201961, Final residual = 8.8852e-05, No Iterations 1
DILUPBiCGStab:  Solving for Uy, Initial residual = 0.00518517, Final residual = 0.000211238, No Iterations 1
DILUPBiCGStab:  Solving for Uz, Initial residual = 0.00694074, Final residual = 0.000300222, No Iterations 1
DILUPBiCGStab:  Solving for h, Initial residual = 0.00417068, Final residual = 0.000285443, No Iterations 1
Min/max T:296.806 325.773
GAMG:  Solving for p_rgh, Initial residual = 0.0124021, Final residual = 0.000108554, No Iterations 2
GAMG:  Solving for p_rgh, Initial residual = 0.00181147, Final residual = 1.271e-05, No Iterations 3
GAMG:  Solving for p_rgh, Initial residual = 0.000358632, Final residual = 2.57418e-06, No Iterations 3
time step continuity errors : sum local = 1.46368e-05, global = -6.36082e-07, cumulative = -6.36082e-07
ExecutionTime = 8.84909 s  ClockTime = 16 s

volFieldValue volAvgFinTemperature write:
    volAverage() of T = 324.922

volFieldValue volAvgHeaterTemperature write:
    volAverage() of T = 338.245

surfaceFieldValue averageTempHeaterFinInterface write:
    areaAverage(heater_to_fins) of T = 325.744

Region: fluid Courant Number mean: 1340.45 max: 77739.7
Region: fins Diffusion Number mean: 131.174 max: 167602
Region: heater Diffusion Number mean: 70.4493 max: 522.211
Time = 15s


Solving for solid region fins
GAMG:  Solving for e, Initial residual = 0.306316, Final residual = 0.00920355, No Iterations 1
Min/max T:324.652 328.143

Solving for solid region heater
GAMG:  Solving for e, Initial residual = 0.0651264, Final residual = 2.0831e-05, No Iterations 1
Min/max T:327.327 346.19

Solving for fluid region fluid
DILUPBiCGStab:  Solving for Ux, Initial residual = 0.00194813, Final residual = 8.56026e-05, No Iterations 1
DILUPBiCGStab:  Solving for Uy, Initial residual = 0.00493652, Final residual = 0.000203159, No Iterations 1
DILUPBiCGStab:  Solving for Uz, Initial residual = 0.00654354, Final residual = 0.000283103, No Iterations 1
DILUPBiCGStab:  Solving for h, Initial residual = 0.00389441, Final residual = 0.000263479, No Iterations 1
Min/max T:296.806 327.897
GAMG:  Solving for p_rgh, Initial residual = 0.011475, Final residual = 0.000101707, No Iterations 2
GAMG:  Solving for p_rgh, Initial residual = 0.00170149, Final residual = 1.13086e-05, No Iterations 3
GAMG:  Solving for p_rgh, Initial residual = 0.000331659, Final residual = 2.32719e-06, No Iterations 3
time step continuity errors : sum local = 1.32745e-05, global = -3.45236e-08, cumulative = -3.45236e-08
ExecutionTime = 9.0317 s  ClockTime = 16 s

volFieldValue volAvgFinTemperature write:
    volAverage() of T = 326.973

volFieldValue volAvgHeaterTemperature write:
    volAverage() of T = 340.361

surfaceFieldValue averageTempHeaterFinInterface write:
    areaAverage(heater_to_fins) of T = 327.865

Region: fluid Courant Number mean: 1340.32 max: 77354.4
Region: fins Diffusion Number mean: 131.174 max: 167602
Region: heater Diffusion Number mean: 70.4493 max: 522.211
Time = 16s


Solving for solid region fins
GAMG:  Solving for e, Initial residual = 0.293041, Final residual = 0.00884084, No Iterations 1
Min/max T:326.691 330.254

Solving for solid region heater
GAMG:  Solving for e, Initial residual = 0.0646242, Final residual = 1.9166e-05, No Iterations 1
Min/max T:329.422 348.291

Solving for fluid region fluid
DILUPBiCGStab:  Solving for Ux, Initial residual = 0.00188429, Final residual = 8.26908e-05, No Iterations 1
DILUPBiCGStab:  Solving for Uy, Initial residual = 0.00473002, Final residual = 0.000195994, No Iterations 1
DILUPBiCGStab:  Solving for Uz, Initial residual = 0.0061949, Final residual = 0.000268017, No Iterations 1
DILUPBiCGStab:  Solving for h, Initial residual = 0.0036562, Final residual = 0.000246373, No Iterations 1
Min/max T:296.8 330.006
GAMG:  Solving for p_rgh, Initial residual = 0.0107556, Final residual = 9.85189e-05, No Iterations 2
GAMG:  Solving for p_rgh, Initial residual = 0.00162764, Final residual = 1.06207e-05, No Iterations 3
GAMG:  Solving for p_rgh, Initial residual = 0.00030836, Final residual = 2.10089e-06, No Iterations 3
time step continuity errors : sum local = 1.20202e-05, global = -3.80568e-07, cumulative = -3.80568e-07
ExecutionTime = 9.20621 s  ClockTime = 17 s

volFieldValue volAvgFinTemperature write:
    volAverage() of T = 329.009

volFieldValue volAvgHeaterTemperature write:
    volAverage() of T = 342.462

surfaceFieldValue averageTempHeaterFinInterface write:
    areaAverage(heater_to_fins) of T = 329.97

Region: fluid Courant Number mean: 1340.19 max: 77005.5
Region: fins Diffusion Number mean: 131.174 max: 167602
Region: heater Diffusion Number mean: 70.4493 max: 522.211
Time = 17s


Solving for solid region fins
GAMG:  Solving for e, Initial residual = 0.28073, Final residual = 0.00849374, No Iterations 1
Min/max T:328.717 332.351

Solving for solid region heater
GAMG:  Solving for e, Initial residual = 0.0641301, Final residual = 1.80806e-05, No Iterations 1
Min/max T:331.502 350.378

Solving for fluid region fluid
DILUPBiCGStab:  Solving for Ux, Initial residual = 0.00182789, Final residual = 8.00271e-05, No Iterations 1
DILUPBiCGStab:  Solving for Uy, Initial residual = 0.00455003, Final residual = 0.000189765, No Iterations 1
DILUPBiCGStab:  Solving for Uz, Initial residual = 0.00588214, Final residual = 0.000254015, No Iterations 1
DILUPBiCGStab:  Solving for h, Initial residual = 0.00344866, Final residual = 0.000232177, No Iterations 1
Min/max T:296.793 332.1
GAMG:  Solving for p_rgh, Initial residual = 0.010185, Final residual = 9.45953e-05, No Iterations 2
GAMG:  Solving for p_rgh, Initial residual = 0.00153353, Final residual = 9.91978e-06, No Iterations 3
GAMG:  Solving for p_rgh, Initial residual = 0.000293627, Final residual = 1.99155e-06, No Iterations 3
time step continuity errors : sum local = 1.14271e-05, global = -3.71047e-07, cumulative = -3.71047e-07
ExecutionTime = 9.37943 s  ClockTime = 17 s

volFieldValue volAvgFinTemperature write:
    volAverage() of T = 331.031

volFieldValue volAvgHeaterTemperature write:
    volAverage() of T = 344.549

surfaceFieldValue averageTempHeaterFinInterface write:
    areaAverage(heater_to_fins) of T = 332.061

Region: fluid Courant Number mean: 1340.06 max: 76687.2
Region: fins Diffusion Number mean: 131.174 max: 167602
Region: heater Diffusion Number mean: 70.4493 max: 522.211
Time = 18s


Solving for solid region fins
GAMG:  Solving for e, Initial residual = 0.269297, Final residual = 0.00816517, No Iterations 1
Min/max T:330.73 334.432

Solving for solid region heater
GAMG:  Solving for e, Initial residual = 0.0636424, Final residual = 1.73786e-05, No Iterations 1
Min/max T:333.568 352.45

Solving for fluid region fluid
DILUPBiCGStab:  Solving for Ux, Initial residual = 0.00177725, Final residual = 7.75735e-05, No Iterations 1
DILUPBiCGStab:  Solving for Uy, Initial residual = 0.00438716, Final residual = 0.000183903, No Iterations 1
DILUPBiCGStab:  Solving for Uz, Initial residual = 0.00560006, Final residual = 0.000241576, No Iterations 1
DILUPBiCGStab:  Solving for h, Initial residual = 0.0032675, Final residual = 0.000219991, No Iterations 1
Min/max T:296.787 334.18
GAMG:  Solving for p_rgh, Initial residual = 0.00965001, Final residual = 8.94343e-05, No Iterations 2
GAMG:  Solving for p_rgh, Initial residual = 0.00143987, Final residual = 9.60789e-06, No Iterations 3
GAMG:  Solving for p_rgh, Initial residual = 0.000285282, Final residual = 1.94092e-06, No Iterations 3
time step continuity errors : sum local = 1.11682e-05, global = 3.07665e-08, cumulative = 3.07665e-08
ExecutionTime = 9.5319 s  ClockTime = 17 s

volFieldValue volAvgFinTemperature write:
    volAverage() of T = 333.039

volFieldValue volAvgHeaterTemperature write:
    volAverage() of T = 346.62

surfaceFieldValue averageTempHeaterFinInterface write:
    areaAverage(heater_to_fins) of T = 334.137

Region: fluid Courant Number mean: 1339.93 max: 76394.5
Region: fins Diffusion Number mean: 131.174 max: 167602
Region: heater Diffusion Number mean: 70.4493 max: 522.211
Time = 19s


Solving for solid region fins
GAMG:  Solving for e, Initial residual = 0.258643, Final residual = 0.00785531, No Iterations 1
Min/max T:332.724 336.499

Solving for solid region heater
GAMG:  Solving for e, Initial residual = 0.0631602, Final residual = 1.68911e-05, No Iterations 1
Min/max T:335.62 354.507

Solving for fluid region fluid
DILUPBiCGStab:  Solving for Ux, Initial residual = 0.00173149, Final residual = 7.53252e-05, No Iterations 1
DILUPBiCGStab:  Solving for Uy, Initial residual = 0.00424035, Final residual = 0.000178211, No Iterations 1
DILUPBiCGStab:  Solving for Uz, Initial residual = 0.00533899, Final residual = 0.000230225, No Iterations 1
DILUPBiCGStab:  Solving for h, Initial residual = 0.00310638, Final residual = 0.000209427, No Iterations 1
Min/max T:296.781 336.245
GAMG:  Solving for p_rgh, Initial residual = 0.00911975, Final residual = 8.35379e-05, No Iterations 2
GAMG:  Solving for p_rgh, Initial residual = 0.00133802, Final residual = 9.03235e-06, No Iterations 3
GAMG:  Solving for p_rgh, Initial residual = 0.00026804, Final residual = 1.76416e-06, No Iterations 3
time step continuity errors : sum local = 1.0179e-05, global = -7.15566e-08, cumulative = -7.15566e-08
ExecutionTime = 9.70174 s  ClockTime = 18 s

volFieldValue volAvgFinTemperature write:
    volAverage() of T = 335.032

volFieldValue volAvgHeaterTemperature write:
    volAverage() of T = 348.677

surfaceFieldValue averageTempHeaterFinInterface write:
    areaAverage(heater_to_fins) of T = 336.198

Region: fluid Courant Number mean: 1339.81 max: 76122.5
Region: fins Diffusion Number mean: 131.174 max: 167602
Region: heater Diffusion Number mean: 70.4493 max: 522.211
Time = 20s


Solving for solid region fins
GAMG:  Solving for e, Initial residual = 0.248709, Final residual = 0.00756258, No Iterations 1
Min/max T:334.682 338.552

Solving for solid region heater
GAMG:  Solving for e, Initial residual = 0.0626831, Final residual = 1.65299e-05, No Iterations 1
Min/max T:337.657 356.549

Solving for fluid region fluid
DILUPBiCGStab:  Solving for Ux, Initial residual = 0.00169064, Final residual = 7.33138e-05, No Iterations 1
DILUPBiCGStab:  Solving for Uy, Initial residual = 0.00410585, Final residual = 0.000172754, No Iterations 1
DILUPBiCGStab:  Solving for Uz, Initial residual = 0.00510039, Final residual = 0.000219862, No Iterations 1
DILUPBiCGStab:  Solving for h, Initial residual = 0.00296248, Final residual = 0.000199985, No Iterations 1
Min/max T:296.775 338.295
GAMG:  Solving for p_rgh, Initial residual = 0.00871792, Final residual = 8.15717e-05, No Iterations 2
GAMG:  Solving for p_rgh, Initial residual = 0.00128415, Final residual = 8.748e-06, No Iterations 3
GAMG:  Solving for p_rgh, Initial residual = 0.000254448, Final residual = 1.67897e-06, No Iterations 3
time step continuity errors : sum local = 9.70979e-06, global = -3.3582e-07, cumulative = -3.3582e-07
ExecutionTime = 9.86715 s  ClockTime = 18 s

volFieldValue volAvgFinTemperature write:
    volAverage() of T = 337.012

volFieldValue volAvgHeaterTemperature write:
    volAverage() of T = 350.72

surfaceFieldValue averageTempHeaterFinInterface write:
    areaAverage(heater_to_fins) of T = 338.245

Region: fluid Courant Number mean: 1339.68 max: 75867.4
Region: fins Diffusion Number mean: 131.174 max: 167602
Region: heater Diffusion Number mean: 70.4493 max: 522.211
Time = 21s


Solving for solid region fins
GAMG:  Solving for e, Initial residual = 0.239432, Final residual = 0.00728512, No Iterations 1
Min/max T:336.626 340.59

Solving for solid region heater
GAMG:  Solving for e, Initial residual = 0.0622109, Final residual = 1.6249e-05, No Iterations 1
Min/max T:339.681 358.578

Solving for fluid region fluid
DILUPBiCGStab:  Solving for Ux, Initial residual = 0.00165277, Final residual = 7.14806e-05, No Iterations 1
DILUPBiCGStab:  Solving for Uy, Initial residual = 0.00397791, Final residual = 0.000167357, No Iterations 1
DILUPBiCGStab:  Solving for Uz, Initial residual = 0.00488027, Final residual = 0.000210167, No Iterations 1
DILUPBiCGStab:  Solving for h, Initial residual = 0.00283439, Final residual = 0.000191558, No Iterations 1
Min/max T:296.768 340.331
GAMG:  Solving for p_rgh, Initial residual = 0.00830819, Final residual = 7.93356e-05, No Iterations 2
GAMG:  Solving for p_rgh, Initial residual = 0.00121077, Final residual = 8.51842e-06, No Iterations 3
GAMG:  Solving for p_rgh, Initial residual = 0.000244715, Final residual = 1.6097e-06, No Iterations 3
time step continuity errors : sum local = 9.32566e-06, global = -5.76429e-07, cumulative = -5.76429e-07
ExecutionTime = 10.0235 s  ClockTime = 18 s

volFieldValue volAvgFinTemperature write:
    volAverage() of T = 338.978

volFieldValue volAvgHeaterTemperature write:
    volAverage() of T = 352.749

surfaceFieldValue averageTempHeaterFinInterface write:
    areaAverage(heater_to_fins) of T = 340.278

Region: fluid Courant Number mean: 1339.56 max: 75625.6
Region: fins Diffusion Number mean: 131.174 max: 167602
Region: heater Diffusion Number mean: 70.4493 max: 522.211
Time = 22s


Solving for solid region fins
GAMG:  Solving for e, Initial residual = 0.230757, Final residual = 0.00702326, No Iterations 1
Min/max T:338.556 342.613

Solving for solid region heater
GAMG:  Solving for e, Initial residual = 0.0617436, Final residual = 1.60204e-05, No Iterations 1
Min/max T:341.69 360.592

Solving for fluid region fluid
DILUPBiCGStab:  Solving for Ux, Initial residual = 0.00161751, Final residual = 6.97706e-05, No Iterations 1
DILUPBiCGStab:  Solving for Uy, Initial residual = 0.00385793, Final residual = 0.000162284, No Iterations 1
DILUPBiCGStab:  Solving for Uz, Initial residual = 0.00467618, Final residual = 0.000201209, No Iterations 1
DILUPBiCGStab:  Solving for h, Initial residual = 0.00271869, Final residual = 0.000184119, No Iterations 1
Min/max T:296.762 342.354
GAMG:  Solving for p_rgh, Initial residual = 0.0079739, Final residual = 7.55342e-05, No Iterations 2
GAMG:  Solving for p_rgh, Initial residual = 0.00115137, Final residual = 8.1756e-06, No Iterations 3
GAMG:  Solving for p_rgh, Initial residual = 0.000233418, Final residual = 1.53734e-06, No Iterations 3
time step continuity errors : sum local = 8.92136e-06, global = -7.36039e-07, cumulative = -7.36039e-07
ExecutionTime = 10.1755 s  ClockTime = 18 s

volFieldValue volAvgFinTemperature write:
    volAverage() of T = 340.93

volFieldValue volAvgHeaterTemperature write:
    volAverage() of T = 354.763

surfaceFieldValue averageTempHeaterFinInterface write:
    areaAverage(heater_to_fins) of T = 342.296

Region: fluid Courant Number mean: 1339.44 max: 75394.3
Region: fins Diffusion Number mean: 131.174 max: 167602
Region: heater Diffusion Number mean: 70.4493 max: 522.211
Time = 23s


Solving for solid region fins
GAMG:  Solving for e, Initial residual = 0.222625, Final residual = 0.00677634, No Iterations 1
Min/max T:340.473 344.623

Solving for solid region heater
GAMG:  Solving for e, Initial residual = 0.0612809, Final residual = 1.58232e-05, No Iterations 1
Min/max T:343.686 362.592

Solving for fluid region fluid
DILUPBiCGStab:  Solving for Ux, Initial residual = 0.00158406, Final residual = 6.81588e-05, No Iterations 1
DILUPBiCGStab:  Solving for Uy, Initial residual = 0.00374517, Final residual = 0.000157417, No Iterations 1
DILUPBiCGStab:  Solving for Uz, Initial residual = 0.00448652, Final residual = 0.000192811, No Iterations 1
DILUPBiCGStab:  Solving for h, Initial residual = 0.00261223, Final residual = 0.000177129, No Iterations 1
Min/max T:296.756 344.362
GAMG:  Solving for p_rgh, Initial residual = 0.00768968, Final residual = 7.06891e-05, No Iterations 2
GAMG:  Solving for p_rgh, Initial residual = 0.00109475, Final residual = 7.78949e-06, No Iterations 3
GAMG:  Solving for p_rgh, Initial residual = 0.000220702, Final residual = 1.45772e-06, No Iterations 3
time step continuity errors : sum local = 8.47481e-06, global = -8.02191e-07, cumulative = -8.02191e-07
ExecutionTime = 10.3304 s  ClockTime = 19 s

volFieldValue volAvgFinTemperature write:
    volAverage() of T = 342.868

volFieldValue volAvgHeaterTemperature write:
    volAverage() of T = 356.763

surfaceFieldValue averageTempHeaterFinInterface write:
    areaAverage(heater_to_fins) of T = 344.301

Region: fluid Courant Number mean: 1339.32 max: 75171.3
Region: fins Diffusion Number mean: 131.174 max: 167602
Region: heater Diffusion Number mean: 70.4493 max: 522.211
Time = 24s


Solving for solid region fins
GAMG:  Solving for e, Initial residual = 0.214979, Final residual = 0.00654369, No Iterations 1
Min/max T:342.376 346.619

Solving for solid region heater
GAMG:  Solving for e, Initial residual = 0.0608226, Final residual = 1.56542e-05, No Iterations 1
Min/max T:345.667 364.579

Solving for fluid region fluid
DILUPBiCGStab:  Solving for Ux, Initial residual = 0.00155199, Final residual = 6.6638e-05, No Iterations 1
DILUPBiCGStab:  Solving for Uy, Initial residual = 0.00363238, Final residual = 0.000152575, No Iterations 1
DILUPBiCGStab:  Solving for Uz, Initial residual = 0.00430934, Final residual = 0.000184986, No Iterations 1
DILUPBiCGStab:  Solving for h, Initial residual = 0.0025151, Final residual = 0.0001703, No Iterations 1
Min/max T:296.749 346.356
GAMG:  Solving for p_rgh, Initial residual = 0.00738044, Final residual = 6.86223e-05, No Iterations 2
GAMG:  Solving for p_rgh, Initial residual = 0.00103601, Final residual = 7.44006e-06, No Iterations 3
GAMG:  Solving for p_rgh, Initial residual = 0.000211727, Final residual = 1.38872e-06, No Iterations 3
time step continuity errors : sum local = 8.08901e-06, global = -9.64706e-07, cumulative = -9.64706e-07
ExecutionTime = 10.5021 s  ClockTime = 19 s

volFieldValue volAvgFinTemperature write:
    volAverage() of T = 344.793

volFieldValue volAvgHeaterTemperature write:
    volAverage() of T = 358.75

surfaceFieldValue averageTempHeaterFinInterface write:
    areaAverage(heater_to_fins) of T = 346.291

Region: fluid Courant Number mean: 1339.2 max: 74955
Region: fins Diffusion Number mean: 131.174 max: 167602
Region: heater Diffusion Number mean: 70.4493 max: 522.211
Time = 25s


Solving for solid region fins
GAMG:  Solving for e, Initial residual = 0.20769, Final residual = 0.00632026, No Iterations 1
Min/max T:344.265 348.601

Solving for solid region heater
GAMG:  Solving for e, Initial residual = 0.0603685, Final residual = 1.55049e-05, No Iterations 1
Min/max T:347.636 366.551

Solving for fluid region fluid
DILUPBiCGStab:  Solving for Ux, Initial residual = 0.00152099, Final residual = 6.51819e-05, No Iterations 1
DILUPBiCGStab:  Solving for Uy, Initial residual = 0.00352429, Final residual = 0.00014797, No Iterations 1
DILUPBiCGStab:  Solving for Uz, Initial residual = 0.00413925, Final residual = 0.00017732, No Iterations 1
DILUPBiCGStab:  Solving for h, Initial residual = 0.0024261, Final residual = 0.000163862, No Iterations 1
Min/max T:296.743 348.336
GAMG:  Solving for p_rgh, Initial residual = 0.00705272, Final residual = 6.81524e-05, No Iterations 2
GAMG:  Solving for p_rgh, Initial residual = 0.00099417, Final residual = 7.17232e-06, No Iterations 3
GAMG:  Solving for p_rgh, Initial residual = 0.00020389, Final residual = 1.33891e-06, No Iterations 3
time step continuity errors : sum local = 7.8125e-06, global = -9.58301e-07, cumulative = -9.58301e-07
ExecutionTime = 10.6819 s  ClockTime = 19 s

volFieldValue volAvgFinTemperature write:
    volAverage() of T = 346.705

volFieldValue volAvgHeaterTemperature write:
    volAverage() of T = 360.723

surfaceFieldValue averageTempHeaterFinInterface write:
    areaAverage(heater_to_fins) of T = 348.268

Region: fluid Courant Number mean: 1339.09 max: 74744.3
Region: fins Diffusion Number mean: 131.174 max: 167602
Region: heater Diffusion Number mean: 70.4493 max: 522.211
Time = 26s


Solving for solid region fins
GAMG:  Solving for e, Initial residual = 0.20083, Final residual = 0.00610788, No Iterations 1
Min/max T:346.141 350.569

Solving for solid region heater
GAMG:  Solving for e, Initial residual = 0.0599189, Final residual = 1.53676e-05, No Iterations 1
Min/max T:349.59 368.51

Solving for fluid region fluid
DILUPBiCGStab:  Solving for Ux, Initial residual = 0.00149138, Final residual = 6.37924e-05, No Iterations 1
DILUPBiCGStab:  Solving for Uy, Initial residual = 0.00342276, Final residual = 0.00014373, No Iterations 1
DILUPBiCGStab:  Solving for Uz, Initial residual = 0.00397916, Final residual = 0.000170024, No Iterations 1
DILUPBiCGStab:  Solving for h, Initial residual = 0.00234276, Final residual = 0.000157659, No Iterations 1
Min/max T:296.736 350.302
GAMG:  Solving for p_rgh, Initial residual = 0.00679925, Final residual = 6.68352e-05, No Iterations 2
GAMG:  Solving for p_rgh, Initial residual = 0.000957754, Final residual = 6.96502e-06, No Iterations 3
GAMG:  Solving for p_rgh, Initial residual = 0.000197185, Final residual = 1.29254e-06, No Iterations 3
time step continuity errors : sum local = 7.55416e-06, global = -8.65128e-07, cumulative = -8.65128e-07
ExecutionTime = 10.8499 s  ClockTime = 20 s

volFieldValue volAvgFinTemperature write:
    volAverage() of T = 348.604

volFieldValue volAvgHeaterTemperature write:
    volAverage() of T = 362.682

surfaceFieldValue averageTempHeaterFinInterface write:
    areaAverage(heater_to_fins) of T = 350.231

Region: fluid Courant Number mean: 1338.97 max: 74538.3
Region: fins Diffusion Number mean: 131.174 max: 167602
Region: heater Diffusion Number mean: 70.4493 max: 522.211
Time = 27s


Solving for solid region fins
GAMG:  Solving for e, Initial residual = 0.194365, Final residual = 0.00590432, No Iterations 1
Min/max T:348.004 352.523

Solving for solid region heater
GAMG:  Solving for e, Initial residual = 0.0594741, Final residual = 1.52343e-05, No Iterations 1
Min/max T:351.531 370.456

Solving for fluid region fluid
DILUPBiCGStab:  Solving for Ux, Initial residual = 0.0014629, Final residual = 6.24745e-05, No Iterations 1
DILUPBiCGStab:  Solving for Uy, Initial residual = 0.00332446, Final residual = 0.000139712, No Iterations 1
DILUPBiCGStab:  Solving for Uz, Initial residual = 0.00382858, Final residual = 0.00016313, No Iterations 1
DILUPBiCGStab:  Solving for h, Initial residual = 0.00226472, Final residual = 0.00015156, No Iterations 1
Min/max T:296.73 352.255
GAMG:  Solving for p_rgh, Initial residual = 0.00652772, Final residual = 2.58454e-05, No Iterations 3
GAMG:  Solving for p_rgh, Initial residual = 0.000969727, Final residual = 8.49992e-06, No Iterations 2
GAMG:  Solving for p_rgh, Initial residual = 0.000146578, Final residual = 6.69337e-07, No Iterations 4
time step continuity errors : sum local = 3.9184e-06, global = -5.95126e-07, cumulative = -5.95126e-07
ExecutionTime = 11.0119 s  ClockTime = 20 s

volFieldValue volAvgFinTemperature write:
    volAverage() of T = 350.49

volFieldValue volAvgHeaterTemperature write:
    volAverage() of T = 364.627

surfaceFieldValue averageTempHeaterFinInterface write:
    areaAverage(heater_to_fins) of T = 352.181

Region: fluid Courant Number mean: 1338.86 max: 74336.4
Region: fins Diffusion Number mean: 131.174 max: 167602
Region: heater Diffusion Number mean: 70.4493 max: 522.211
Time = 28s


Solving for solid region fins
GAMG:  Solving for e, Initial residual = 0.188266, Final residual = 0.00571298, No Iterations 1
Min/max T:349.855 354.465

Solving for solid region heater
GAMG:  Solving for e, Initial residual = 0.0590335, Final residual = 1.51087e-05, No Iterations 1
Min/max T:353.459 372.388

Solving for fluid region fluid
DILUPBiCGStab:  Solving for Ux, Initial residual = 0.00143593, Final residual = 6.12304e-05, No Iterations 1
DILUPBiCGStab:  Solving for Uy, Initial residual = 0.00323053, Final residual = 0.000135892, No Iterations 1
DILUPBiCGStab:  Solving for Uz, Initial residual = 0.00368558, Final residual = 0.000156555, No Iterations 1
DILUPBiCGStab:  Solving for h, Initial residual = 0.00218978, Final residual = 0.000145247, No Iterations 1
Min/max T:296.723 354.195
GAMG:  Solving for p_rgh, Initial residual = 0.00636186, Final residual = 2.52027e-05, No Iterations 3
GAMG:  Solving for p_rgh, Initial residual = 0.000953345, Final residual = 8.11349e-06, No Iterations 2
GAMG:  Solving for p_rgh, Initial residual = 0.00014428, Final residual = 6.41426e-07, No Iterations 4
time step continuity errors : sum local = 3.76134e-06, global = -5.05001e-07, cumulative = -5.05001e-07
ExecutionTime = 11.1747 s  ClockTime = 20 s

volFieldValue volAvgFinTemperature write:
    volAverage() of T = 352.362

volFieldValue volAvgHeaterTemperature write:
    volAverage() of T = 366.56

surfaceFieldValue averageTempHeaterFinInterface write:
    areaAverage(heater_to_fins) of T = 354.117

Region: fluid Courant Number mean: 1338.74 max: 74138.3
Region: fins Diffusion Number mean: 131.174 max: 167602
Region: heater Diffusion Number mean: 70.4493 max: 522.211
Time = 29s


Solving for solid region fins
GAMG:  Solving for e, Initial residual = 0.182504, Final residual = 0.00553445, No Iterations 1
Min/max T:351.692 356.392

Solving for solid region heater
GAMG:  Solving for e, Initial residual = 0.0585966, Final residual = 1.49901e-05, No Iterations 1
Min/max T:355.374 374.307

Solving for fluid region fluid
DILUPBiCGStab:  Solving for Ux, Initial residual = 0.00140949, Final residual = 6.0039e-05, No Iterations 1
DILUPBiCGStab:  Solving for Uy, Initial residual = 0.00314137, Final residual = 0.000132226, No Iterations 1
DILUPBiCGStab:  Solving for Uz, Initial residual = 0.00355064, Final residual = 0.000150351, No Iterations 1
DILUPBiCGStab:  Solving for h, Initial residual = 0.00211749, Final residual = 0.000139994, No Iterations 1
Min/max T:296.716 356.121
GAMG:  Solving for p_rgh, Initial residual = 0.00611205, Final residual = 2.48677e-05, No Iterations 3
GAMG:  Solving for p_rgh, Initial residual = 0.00093822, Final residual = 8.05799e-06, No Iterations 2
GAMG:  Solving for p_rgh, Initial residual = 0.000141912, Final residual = 6.45737e-07, No Iterations 4
time step continuity errors : sum local = 3.79267e-06, global = -5.31089e-07, cumulative = -5.31089e-07
ExecutionTime = 11.3206 s  ClockTime = 21 s

volFieldValue volAvgFinTemperature write:
    volAverage() of T = 354.222

volFieldValue volAvgHeaterTemperature write:
    volAverage() of T = 368.479

surfaceFieldValue averageTempHeaterFinInterface write:
    areaAverage(heater_to_fins) of T = 356.04

Region: fluid Courant Number mean: 1338.63 max: 73943.5
Region: fins Diffusion Number mean: 131.174 max: 167602
Region: heater Diffusion Number mean: 70.4493 max: 522.211
Time = 30s


Solving for solid region fins
GAMG:  Solving for e, Initial residual = 0.177047, Final residual = 0.00536937, No Iterations 1
Min/max T:353.517 358.307

Solving for solid region heater
GAMG:  Solving for e, Initial residual = 0.0581629, Final residual = 1.48793e-05, No Iterations 1
Min/max T:357.275 376.212

Solving for fluid region fluid
DILUPBiCGStab:  Solving for Ux, Initial residual = 0.00138415, Final residual = 5.88931e-05, No Iterations 1
DILUPBiCGStab:  Solving for Uy, Initial residual = 0.00305692, Final residual = 0.000128718, No Iterations 1
DILUPBiCGStab:  Solving for Uz, Initial residual = 0.00342225, Final residual = 0.000144433, No Iterations 1
DILUPBiCGStab:  Solving for h, Initial residual = 0.00204814, Final residual = 0.000134761, No Iterations 1
Min/max T:296.71 358.034
GAMG:  Solving for p_rgh, Initial residual = 0.00600589, Final residual = 2.42325e-05, No Iterations 3
GAMG:  Solving for p_rgh, Initial residual = 0.00091548, Final residual = 7.84123e-06, No Iterations 2
GAMG:  Solving for p_rgh, Initial residual = 0.000138724, Final residual = 6.37742e-07, No Iterations 4
time step continuity errors : sum local = 3.75179e-06, global = -4.54212e-07, cumulative = -4.54212e-07
ExecutionTime = 11.4777 s  ClockTime = 21 s

volFieldValue volAvgFinTemperature write:
    volAverage() of T = 356.069

volFieldValue volAvgHeaterTemperature write:
    volAverage() of T = 370.384

surfaceFieldValue averageTempHeaterFinInterface write:
    areaAverage(heater_to_fins) of T = 357.95

Region: fluid Courant Number mean: 1338.52 max: 73751.8
Region: fins Diffusion Number mean: 131.174 max: 167602
Region: heater Diffusion Number mean: 70.4493 max: 522.211
Time = 31s


Solving for solid region fins
GAMG:  Solving for e, Initial residual = 0.171873, Final residual = 0.0052524, No Iterations 1
Min/max T:355.33 360.208

Solving for solid region heater
GAMG:  Solving for e, Initial residual = 0.0577252, Final residual = 1.48385e-05, No Iterations 1
Min/max T:359.163 378.104

Solving for fluid region fluid
DILUPBiCGStab:  Solving for Ux, Initial residual = 0.00135961, Final residual = 5.77762e-05, No Iterations 1
DILUPBiCGStab:  Solving for Uy, Initial residual = 0.00297541, Final residual = 0.000125247, No Iterations 1
DILUPBiCGStab:  Solving for Uz, Initial residual = 0.00330047, Final residual = 0.000138922, No Iterations 1
DILUPBiCGStab:  Solving for h, Initial residual = 0.00198443, Final residual = 0.000129598, No Iterations 1
Min/max T:296.703 359.933
GAMG:  Solving for p_rgh, Initial residual = 0.00579112, Final residual = 2.34072e-05, No Iterations 3
GAMG:  Solving for p_rgh, Initial residual = 0.000871828, Final residual = 7.55764e-06, No Iterations 2
GAMG:  Solving for p_rgh, Initial residual = 0.000133243, Final residual = 6.1679e-07, No Iterations 4
time step continuity errors : sum local = 3.63458e-06, global = -3.99749e-07, cumulative = -3.99749e-07
ExecutionTime = 11.6558 s  ClockTime = 21 s

volFieldValue volAvgFinTemperature write:
    volAverage() of T = 357.903

volFieldValue volAvgHeaterTemperature write:
    volAverage() of T = 372.276

surfaceFieldValue averageTempHeaterFinInterface write:
    areaAverage(heater_to_fins) of T = 359.846

Region: fluid Courant Number mean: 1338.41 max: 73563.1
Region: fins Diffusion Number mean: 131.174 max: 167602
Region: heater Diffusion Number mean: 70.4493 max: 522.211
Time = 32s


Solving for solid region fins
GAMG:  Solving for e, Initial residual = 0.166969, Final residual = 0.00516017, No Iterations 1
Min/max T:357.128 362.095

Solving for solid region heater
GAMG:  Solving for e, Initial residual = 0.0572847, Final residual = 1.48337e-05, No Iterations 1
Min/max T:361.038 379.983

Solving for fluid region fluid
DILUPBiCGStab:  Solving for Ux, Initial residual = 0.00133592, Final residual = 5.66792e-05, No Iterations 1
DILUPBiCGStab:  Solving for Uy, Initial residual = 0.00289617, Final residual = 0.000121941, No Iterations 1
DILUPBiCGStab:  Solving for Uz, Initial residual = 0.00318617, Final residual = 0.000133652, No Iterations 1
DILUPBiCGStab:  Solving for h, Initial residual = 0.00192432, Final residual = 0.000124544, No Iterations 1
Min/max T:296.697 361.819
GAMG:  Solving for p_rgh, Initial residual = 0.0055965, Final residual = 2.29311e-05, No Iterations 3
GAMG:  Solving for p_rgh, Initial residual = 0.000853231, Final residual = 7.42626e-06, No Iterations 2
GAMG:  Solving for p_rgh, Initial residual = 0.000130114, Final residual = 6.03538e-07, No Iterations 4
time step continuity errors : sum local = 3.56192e-06, global = -4.43614e-07, cumulative = -4.43614e-07
ExecutionTime = 11.8225 s  ClockTime = 22 s

volFieldValue volAvgFinTemperature write:
    volAverage() of T = 359.723

volFieldValue volAvgHeaterTemperature write:
    volAverage() of T = 374.155

surfaceFieldValue averageTempHeaterFinInterface write:
    areaAverage(heater_to_fins) of T = 361.729

Region: fluid Courant Number mean: 1338.3 max: 73377.3
Region: fins Diffusion Number mean: 131.174 max: 167602
Region: heater Diffusion Number mean: 70.4493 max: 522.211
Time = 33s


Solving for solid region fins
GAMG:  Solving for e, Initial residual = 0.162278, Final residual = 0.00507176, No Iterations 1
Min/max T:358.913 363.969

Solving for solid region heater
GAMG:  Solving for e, Initial residual = 0.0568442, Final residual = 1.4828e-05, No Iterations 1
Min/max T:362.899 381.848

Solving for fluid region fluid
DILUPBiCGStab:  Solving for Ux, Initial residual = 0.00131289, Final residual = 5.56175e-05, No Iterations 1
DILUPBiCGStab:  Solving for Uy, Initial residual = 0.00281989, Final residual = 0.00011876, No Iterations 1
DILUPBiCGStab:  Solving for Uz, Initial residual = 0.00307809, Final residual = 0.000128802, No Iterations 1
DILUPBiCGStab:  Solving for h, Initial residual = 0.00186776, Final residual = 0.000119585, No Iterations 1
Min/max T:296.69 363.692
GAMG:  Solving for p_rgh, Initial residual = 0.00542178, Final residual = 2.27862e-05, No Iterations 3
GAMG:  Solving for p_rgh, Initial residual = 0.000835208, Final residual = 7.34765e-06, No Iterations 2
GAMG:  Solving for p_rgh, Initial residual = 0.000127693, Final residual = 6.0147e-07, No Iterations 4
time step continuity errors : sum local = 3.5549e-06, global = -4.54793e-07, cumulative = -4.54793e-07
ExecutionTime = 11.9913 s  ClockTime = 22 s

volFieldValue volAvgFinTemperature write:
    volAverage() of T = 361.529

volFieldValue volAvgHeaterTemperature write:
    volAverage() of T = 376.021

surfaceFieldValue averageTempHeaterFinInterface write:
    areaAverage(heater_to_fins) of T = 363.598

Region: fluid Courant Number mean: 1338.2 max: 73194.1
Region: fins Diffusion Number mean: 131.174 max: 167602
Region: heater Diffusion Number mean: 70.4493 max: 522.211
Time = 34s


Solving for solid region fins
GAMG:  Solving for e, Initial residual = 0.157766, Final residual = 0.0049865, No Iterations 1
Min/max T:360.683 365.83

Solving for solid region heater
GAMG:  Solving for e, Initial residual = 0.0564037, Final residual = 1.48296e-05, No Iterations 1
Min/max T:364.747 383.701

Solving for fluid region fluid
DILUPBiCGStab:  Solving for Ux, Initial residual = 0.00129055, Final residual = 5.45837e-05, No Iterations 1
DILUPBiCGStab:  Solving for Uy, Initial residual = 0.00274769, Final residual = 0.000115715, No Iterations 1
DILUPBiCGStab:  Solving for Uz, Initial residual = 0.00297479, Final residual = 0.000124186, No Iterations 1
DILUPBiCGStab:  Solving for h, Initial residual = 0.00181426, Final residual = 0.000114823, No Iterations 1
Min/max T:296.684 365.551
GAMG:  Solving for p_rgh, Initial residual = 0.00529814, Final residual = 2.25937e-05, No Iterations 3
GAMG:  Solving for p_rgh, Initial residual = 0.000822004, Final residual = 7.26417e-06, No Iterations 2
GAMG:  Solving for p_rgh, Initial residual = 0.00012661, Final residual = 6.06102e-07, No Iterations 4
time step continuity errors : sum local = 3.58747e-06, global = -4.15067e-07, cumulative = -4.15067e-07
ExecutionTime = 12.1462 s  ClockTime = 22 s

volFieldValue volAvgFinTemperature write:
    volAverage() of T = 363.322

volFieldValue volAvgHeaterTemperature write:
    volAverage() of T = 377.873

surfaceFieldValue averageTempHeaterFinInterface write:
    areaAverage(heater_to_fins) of T = 365.454

Region: fluid Courant Number mean: 1338.09 max: 73013.6
Region: fins Diffusion Number mean: 131.174 max: 167602
Region: heater Diffusion Number mean: 70.4493 max: 522.211
Time = 35s


Solving for solid region fins
GAMG:  Solving for e, Initial residual = 0.15343, Final residual = 0.00490797, No Iterations 1
Min/max T:362.44 367.677

Solving for solid region heater
GAMG:  Solving for e, Initial residual = 0.0559623, Final residual = 1.48528e-05, No Iterations 1
Min/max T:366.582 385.539

Solving for fluid region fluid
DILUPBiCGStab:  Solving for Ux, Initial residual = 0.00126869, Final residual = 5.35685e-05, No Iterations 1
DILUPBiCGStab:  Solving for Uy, Initial residual = 0.00267658, Final residual = 0.000112716, No Iterations 1
DILUPBiCGStab:  Solving for Uz, Initial residual = 0.00287726, Final residual = 0.000119798, No Iterations 1
DILUPBiCGStab:  Solving for h, Initial residual = 0.00176424, Final residual = 0.000109934, No Iterations 1
Min/max T:296.678 367.396
GAMG:  Solving for p_rgh, Initial residual = 0.00521128, Final residual = 2.27781e-05, No Iterations 3
GAMG:  Solving for p_rgh, Initial residual = 0.000821045, Final residual = 7.35988e-06, No Iterations 2
GAMG:  Solving for p_rgh, Initial residual = 0.000126835, Final residual = 6.35725e-07, No Iterations 4
time step continuity errors : sum local = 3.76806e-06, global = -4.18642e-07, cumulative = -4.18642e-07
ExecutionTime = 12.2975 s  ClockTime = 23 s

volFieldValue volAvgFinTemperature write:
    volAverage() of T = 365.1

volFieldValue volAvgHeaterTemperature write:
    volAverage() of T = 379.711

surfaceFieldValue averageTempHeaterFinInterface write:
    areaAverage(heater_to_fins) of T = 367.297

Region: fluid Courant Number mean: 1337.99 max: 72835.7
Region: fins Diffusion Number mean: 131.174 max: 167602
Region: heater Diffusion Number mean: 70.4493 max: 522.211
Time = 36s


Solving for solid region fins
GAMG:  Solving for e, Initial residual = 0.149264, Final residual = 0.00482131, No Iterations 1
Min/max T:364.182 369.511

Solving for solid region heater
GAMG:  Solving for e, Initial residual = 0.0555237, Final residual = 1.48408e-05, No Iterations 1
Min/max T:368.403 387.365

Solving for fluid region fluid
DILUPBiCGStab:  Solving for Ux, Initial residual = 0.00124728, Final residual = 5.2582e-05, No Iterations 1
DILUPBiCGStab:  Solving for Uy, Initial residual = 0.00260697, Final residual = 0.000109766, No Iterations 1
DILUPBiCGStab:  Solving for Uz, Initial residual = 0.00278462, Final residual = 0.000115595, No Iterations 1
DILUPBiCGStab:  Solving for h, Initial residual = 0.00171707, Final residual = 0.000104971, No Iterations 1
Min/max T:296.671 369.229
GAMG:  Solving for p_rgh, Initial residual = 0.00539405, Final residual = 2.37645e-05, No Iterations 3
GAMG:  Solving for p_rgh, Initial residual = 0.000880954, Final residual = 8.03519e-06, No Iterations 2
GAMG:  Solving for p_rgh, Initial residual = 0.000136137, Final residual = 7.50384e-07, No Iterations 4
time step continuity errors : sum local = 4.45317e-06, global = -5.20193e-07, cumulative = -5.20193e-07
ExecutionTime = 12.4466 s  ClockTime = 23 s

volFieldValue volAvgFinTemperature write:
    volAverage() of T = 366.865

volFieldValue volAvgHeaterTemperature write:
    volAverage() of T = 381.536

surfaceFieldValue averageTempHeaterFinInterface write:
    areaAverage(heater_to_fins) of T = 369.126

Region: fluid Courant Number mean: 1337.88 max: 72660.5
Region: fins Diffusion Number mean: 131.174 max: 167602
Region: heater Diffusion Number mean: 70.4493 max: 522.211
Time = 37s


Solving for solid region fins
GAMG:  Solving for e, Initial residual = 0.145249, Final residual = 0.00473318, No Iterations 1
Min/max T:365.911 371.331

Solving for solid region heater
GAMG:  Solving for e, Initial residual = 0.0550896, Final residual = 1.47623e-05, No Iterations 1
Min/max T:370.21 389.177

Solving for fluid region fluid
DILUPBiCGStab:  Solving for Ux, Initial residual = 0.00122643, Final residual = 5.16105e-05, No Iterations 1
DILUPBiCGStab:  Solving for Uy, Initial residual = 0.00253828, Final residual = 0.000106713, No Iterations 1
DILUPBiCGStab:  Solving for Uz, Initial residual = 0.00269601, Final residual = 0.000111587, No Iterations 1
DILUPBiCGStab:  Solving for h, Initial residual = 0.00167386, Final residual = 9.95149e-05, No Iterations 1
Min/max T:296.665 371.047
GAMG:  Solving for p_rgh, Initial residual = 0.00500029, Final residual = 1.95725e-05, No Iterations 3
GAMG:  Solving for p_rgh, Initial residual = 0.000798864, Final residual = 3.96161e-06, No Iterations 3
GAMG:  Solving for p_rgh, Initial residual = 0.000130087, Final residual = 1.09795e-06, No Iterations 3
time step continuity errors : sum local = 6.52506e-06, global = -4.74622e-07, cumulative = -4.74622e-07
ExecutionTime = 12.6145 s  ClockTime = 23 s

volFieldValue volAvgFinTemperature write:
    volAverage() of T = 368.617

volFieldValue volAvgHeaterTemperature write:
    volAverage() of T = 383.347

surfaceFieldValue averageTempHeaterFinInterface write:
    areaAverage(heater_to_fins) of T = 370.941

Region: fluid Courant Number mean: 1337.78 max: 72487.9
Region: fins Diffusion Number mean: 131.174 max: 167602
Region: heater Diffusion Number mean: 70.4493 max: 522.211
Time = 38s


Solving for solid region fins
GAMG:  Solving for e, Initial residual = 0.141389, Final residual = 0.00463809, No Iterations 1
Min/max T:367.626 373.138

Solving for solid region heater
GAMG:  Solving for e, Initial residual = 0.0546507, Final residual = 1.48165e-05, No Iterations 1
Min/max T:372.005 390.975

Solving for fluid region fluid
DILUPBiCGStab:  Solving for Ux, Initial residual = 0.001206, Final residual = 5.06319e-05, No Iterations 1
DILUPBiCGStab:  Solving for Uy, Initial residual = 0.00246549, Final residual = 0.000103774, No Iterations 1
DILUPBiCGStab:  Solving for Uz, Initial residual = 0.00260417, Final residual = 0.000107537, No Iterations 1
DILUPBiCGStab:  Solving for h, Initial residual = 0.0016284, Final residual = 9.60579e-05, No Iterations 1
Min/max T:296.659 372.853
GAMG:  Solving for p_rgh, Initial residual = 0.00480293, Final residual = 2.02672e-05, No Iterations 3
GAMG:  Solving for p_rgh, Initial residual = 0.000759225, Final residual = 7.2066e-06, No Iterations 2
GAMG:  Solving for p_rgh, Initial residual = 0.000116171, Final residual = 5.80422e-07, No Iterations 4
time step continuity errors : sum local = 3.45385e-06, global = -3.74182e-07, cumulative = -3.74182e-07
ExecutionTime = 12.782 s  ClockTime = 23 s

volFieldValue volAvgFinTemperature write:
    volAverage() of T = 370.355

volFieldValue volAvgHeaterTemperature write:
    volAverage() of T = 385.145

surfaceFieldValue averageTempHeaterFinInterface write:
    areaAverage(heater_to_fins) of T = 372.743

Region: fluid Courant Number mean: 1337.68 max: 72317.8
Region: fins Diffusion Number mean: 131.174 max: 167602
Region: heater Diffusion Number mean: 70.4493 max: 522.211
Time = 39s


Solving for solid region fins
GAMG:  Solving for e, Initial residual = 0.137664, Final residual = 0.00453986, No Iterations 1
Min/max T:369.327 374.931

Solving for solid region heater
GAMG:  Solving for e, Initial residual = 0.0542169, Final residual = 1.47982e-05, No Iterations 1
Min/max T:373.785 392.76

Solving for fluid region fluid
DILUPBiCGStab:  Solving for Ux, Initial residual = 0.00118645, Final residual = 4.97145e-05, No Iterations 1
DILUPBiCGStab:  Solving for Uy, Initial residual = 0.00240011, Final residual = 0.000101093, No Iterations 1
DILUPBiCGStab:  Solving for Uz, Initial residual = 0.00252363, Final residual = 0.000103976, No Iterations 1
DILUPBiCGStab:  Solving for h, Initial residual = 0.00158423, Final residual = 9.19616e-05, No Iterations 1
Min/max T:296.653 374.645
GAMG:  Solving for p_rgh, Initial residual = 0.0046186, Final residual = 1.7817e-05, No Iterations 3
GAMG:  Solving for p_rgh, Initial residual = 0.000703521, Final residual = 6.43379e-06, No Iterations 2
GAMG:  Solving for p_rgh, Initial residual = 0.00010661, Final residual = 5.02976e-07, No Iterations 4
time step continuity errors : sum local = 2.99674e-06, global = -1.68782e-07, cumulative = -1.68782e-07
ExecutionTime = 12.942 s  ClockTime = 24 s

volFieldValue volAvgFinTemperature write:
    volAverage() of T = 372.08

volFieldValue volAvgHeaterTemperature write:
    volAverage() of T = 386.93

surfaceFieldValue averageTempHeaterFinInterface write:
    areaAverage(heater_to_fins) of T = 374.532

Region: fluid Courant Number mean: 1337.59 max: 72150.2
Region: fins Diffusion Number mean: 131.174 max: 167602
Region: heater Diffusion Number mean: 70.4493 max: 522.211
Time = 40s


Solving for solid region fins
GAMG:  Solving for e, Initial residual = 0.134068, Final residual = 0.00444158, No Iterations 1
Min/max T:371.014 376.711

Solving for solid region heater
GAMG:  Solving for e, Initial residual = 0.053787, Final residual = 1.47456e-05, No Iterations 1
Min/max T:375.553 394.532

Solving for fluid region fluid
DILUPBiCGStab:  Solving for Ux, Initial residual = 0.00116656, Final residual = 4.87791e-05, No Iterations 1
DILUPBiCGStab:  Solving for Uy, Initial residual = 0.0023358, Final residual = 9.84724e-05, No Iterations 1
DILUPBiCGStab:  Solving for Uz, Initial residual = 0.00244495, Final residual = 0.000100457, No Iterations 1
DILUPBiCGStab:  Solving for h, Initial residual = 0.00154265, Final residual = 8.79956e-05, No Iterations 1
Min/max T:296.647 376.423
GAMG:  Solving for p_rgh, Initial residual = 0.00452397, Final residual = 1.83059e-05, No Iterations 3
GAMG:  Solving for p_rgh, Initial residual = 0.000690682, Final residual = 6.60216e-06, No Iterations 2
GAMG:  Solving for p_rgh, Initial residual = 0.000106658, Final residual = 5.11645e-07, No Iterations 4
time step continuity errors : sum local = 3.05214e-06, global = -2.57821e-07, cumulative = -2.57821e-07
ExecutionTime = 13.099 s  ClockTime = 24 s

volFieldValue volAvgFinTemperature write:
    volAverage() of T = 373.792

volFieldValue volAvgHeaterTemperature write:
    volAverage() of T = 388.702

surfaceFieldValue averageTempHeaterFinInterface write:
    areaAverage(heater_to_fins) of T = 376.307

Region: fluid Courant Number mean: 1337.49 max: 71984.9
Region: fins Diffusion Number mean: 131.174 max: 167602
Region: heater Diffusion Number mean: 70.4493 max: 522.211
Time = 41s


Solving for solid region fins
GAMG:  Solving for e, Initial residual = 0.130621, Final residual = 0.00434377, No Iterations 1
Min/max T:372.689 378.478

Solving for solid region heater
GAMG:  Solving for e, Initial residual = 0.0533605, Final residual = 1.46657e-05, No Iterations 1
Min/max T:377.307 396.291

Solving for fluid region fluid
DILUPBiCGStab:  Solving for Ux, Initial residual = 0.00114724, Final residual = 4.78798e-05, No Iterations 1
DILUPBiCGStab:  Solving for Uy, Initial residual = 0.00227493, Final residual = 9.5978e-05, No Iterations 1
DILUPBiCGStab:  Solving for Uz, Initial residual = 0.00237025, Final residual = 9.71157e-05, No Iterations 1
DILUPBiCGStab:  Solving for h, Initial residual = 0.00150213, Final residual = 8.40872e-05, No Iterations 1
Min/max T:296.642 378.189
GAMG:  Solving for p_rgh, Initial residual = 0.00443511, Final residual = 1.7853e-05, No Iterations 3
GAMG:  Solving for p_rgh, Initial residual = 0.000673125, Final residual = 6.48458e-06, No Iterations 2
GAMG:  Solving for p_rgh, Initial residual = 0.000104809, Final residual = 5.01609e-07, No Iterations 4
time step continuity errors : sum local = 2.99583e-06, global = -2.72231e-07, cumulative = -2.72231e-07
ExecutionTime = 13.2543 s  ClockTime = 24 s

volFieldValue volAvgFinTemperature write:
    volAverage() of T = 375.491

volFieldValue volAvgHeaterTemperature write:
    volAverage() of T = 390.46

surfaceFieldValue averageTempHeaterFinInterface write:
    areaAverage(heater_to_fins) of T = 378.07

Region: fluid Courant Number mean: 1337.39 max: 71821.9
Region: fins Diffusion Number mean: 131.174 max: 167602
Region: heater Diffusion Number mean: 70.4493 max: 522.211
Time = 42s


Solving for solid region fins
GAMG:  Solving for e, Initial residual = 0.127311, Final residual = 0.00424601, No Iterations 1
Min/max T:374.35 380.232

Solving for solid region heater
GAMG:  Solving for e, Initial residual = 0.0529377, Final residual = 1.45664e-05, No Iterations 1
Min/max T:379.049 398.037

Solving for fluid region fluid
DILUPBiCGStab:  Solving for Ux, Initial residual = 0.00112822, Final residual = 4.69945e-05, No Iterations 1
DILUPBiCGStab:  Solving for Uy, Initial residual = 0.00221621, Final residual = 9.35444e-05, No Iterations 1
DILUPBiCGStab:  Solving for Uz, Initial residual = 0.0022991, Final residual = 9.40289e-05, No Iterations 1
DILUPBiCGStab:  Solving for h, Initial residual = 0.00146325, Final residual = 8.02839e-05, No Iterations 1
Min/max T:296.636 379.941
GAMG:  Solving for p_rgh, Initial residual = 0.00434867, Final residual = 1.76154e-05, No Iterations 3
GAMG:  Solving for p_rgh, Initial residual = 0.000657602, Final residual = 6.35621e-06, No Iterations 2
GAMG:  Solving for p_rgh, Initial residual = 0.000102262, Final residual = 4.9228e-07, No Iterations 4
time step continuity errors : sum local = 2.94349e-06, global = -2.90656e-07, cumulative = -2.90656e-07
ExecutionTime = 13.4033 s  ClockTime = 25 s

volFieldValue volAvgFinTemperature write:
    volAverage() of T = 377.177

volFieldValue volAvgHeaterTemperature write:
    volAverage() of T = 392.205

surfaceFieldValue averageTempHeaterFinInterface write:
    areaAverage(heater_to_fins) of T = 379.819

Region: fluid Courant Number mean: 1337.3 max: 71660.9
Region: fins Diffusion Number mean: 131.174 max: 167602
Region: heater Diffusion Number mean: 70.4493 max: 522.211
Time = 43s


Solving for solid region fins
GAMG:  Solving for e, Initial residual = 0.124132, Final residual = 0.00414883, No Iterations 1
Min/max T:375.999 381.972

Solving for solid region heater
GAMG:  Solving for e, Initial residual = 0.0525185, Final residual = 1.44589e-05, No Iterations 1
Min/max T:380.778 399.769

Solving for fluid region fluid
DILUPBiCGStab:  Solving for Ux, Initial residual = 0.00110953, Final residual = 4.61268e-05, No Iterations 1
DILUPBiCGStab:  Solving for Uy, Initial residual = 0.00215952, Final residual = 9.12245e-05, No Iterations 1
DILUPBiCGStab:  Solving for Uz, Initial residual = 0.00223124, Final residual = 9.1099e-05, No Iterations 1
DILUPBiCGStab:  Solving for h, Initial residual = 0.00142582, Final residual = 7.66837e-05, No Iterations 1
Min/max T:296.63 381.681
GAMG:  Solving for p_rgh, Initial residual = 0.00423963, Final residual = 1.70846e-05, No Iterations 3
GAMG:  Solving for p_rgh, Initial residual = 0.000639488, Final residual = 6.17842e-06, No Iterations 2
GAMG:  Solving for p_rgh, Initial residual = 9.90969e-05, Final residual = 4.79182e-07, No Iterations 4
time step continuity errors : sum local = 2.86854e-06, global = -2.6434e-07, cumulative = -2.6434e-07
ExecutionTime = 13.5732 s  ClockTime = 25 s

volFieldValue volAvgFinTemperature write:
    volAverage() of T = 378.851

volFieldValue volAvgHeaterTemperature write:
    volAverage() of T = 393.938

surfaceFieldValue averageTempHeaterFinInterface write:
    areaAverage(heater_to_fins) of T = 381.555

Region: fluid Courant Number mean: 1337.21 max: 71501.9
Region: fins Diffusion Number mean: 131.174 max: 167602
Region: heater Diffusion Number mean: 70.4493 max: 522.211
Time = 44s


Solving for solid region fins
GAMG:  Solving for e, Initial residual = 0.121077, Final residual = 0.00405269, No Iterations 1
Min/max T:377.635 383.7

Solving for solid region heater
GAMG:  Solving for e, Initial residual = 0.052103, Final residual = 1.43459e-05, No Iterations 1
Min/max T:382.493 401.489

Solving for fluid region fluid
DILUPBiCGStab:  Solving for Ux, Initial residual = 0.00109121, Final residual = 4.52764e-05, No Iterations 1
DILUPBiCGStab:  Solving for Uy, Initial residual = 0.00210493, Final residual = 8.89654e-05, No Iterations 1
DILUPBiCGStab:  Solving for Uz, Initial residual = 0.00216634, Final residual = 8.8368e-05, No Iterations 1
DILUPBiCGStab:  Solving for h, Initial residual = 0.00138983, Final residual = 7.32771e-05, No Iterations 1
Min/max T:296.624 383.407
GAMG:  Solving for p_rgh, Initial residual = 0.00414374, Final residual = 1.68728e-05, No Iterations 3
GAMG:  Solving for p_rgh, Initial residual = 0.000622119, Final residual = 6.09376e-06, No Iterations 2
GAMG:  Solving for p_rgh, Initial residual = 9.64895e-05, Final residual = 4.65876e-07, No Iterations 4
time step continuity errors : sum local = 2.79228e-06, global = -3.16067e-07, cumulative = -3.16067e-07
ExecutionTime = 13.7502 s  ClockTime = 25 s

volFieldValue volAvgFinTemperature write:
    volAverage() of T = 380.512

volFieldValue volAvgHeaterTemperature write:
    volAverage() of T = 395.657

surfaceFieldValue averageTempHeaterFinInterface write:
    areaAverage(heater_to_fins) of T = 383.278

Region: fluid Courant Number mean: 1337.12 max: 71344.6
Region: fins Diffusion Number mean: 131.174 max: 167602
Region: heater Diffusion Number mean: 70.4493 max: 522.211
Time = 45s


Solving for solid region fins
GAMG:  Solving for e, Initial residual = 0.118141, Final residual = 0.00395839, No Iterations 1
Min/max T:379.259 385.415

Solving for solid region heater
GAMG:  Solving for e, Initial residual = 0.051691, Final residual = 1.42297e-05, No Iterations 1
Min/max T:384.197 403.196

Solving for fluid region fluid
DILUPBiCGStab:  Solving for Ux, Initial residual = 0.00107325, Final residual = 4.44477e-05, No Iterations 1
DILUPBiCGStab:  Solving for Uy, Initial residual = 0.00205344, Final residual = 8.68317e-05, No Iterations 1
DILUPBiCGStab:  Solving for Uz, Initial residual = 0.00210473, Final residual = 8.58554e-05, No Iterations 1
DILUPBiCGStab:  Solving for h, Initial residual = 0.0013551, Final residual = 7.00777e-05, No Iterations 1
Min/max T:296.619 385.121
GAMG:  Solving for p_rgh, Initial residual = 0.00404541, Final residual = 1.68001e-05, No Iterations 3
GAMG:  Solving for p_rgh, Initial residual = 0.00060579, Final residual = 5.99117e-06, No Iterations 2
[...]
DILUPBiCGStab:  Solving for Ux, Initial residual = 1.56126e-10, Final residual = 1.56126e-10, No Iterations 0
DILUPBiCGStab:  Solving for Uy, Initial residual = 7.48261e-10, Final residual = 7.48261e-10, No Iterations 0
DILUPBiCGStab:  Solving for Uz, Initial residual = 6.54824e-10, Final residual = 6.54824e-10, No Iterations 0
DILUPBiCGStab:  Solving for h, Initial residual = 0.000405584, Final residual = 1.53263e-05, No Iterations 1
Min/max T:295.898 611.278
GAMG:  Solving for p_rgh, Initial residual = 7.80923e-08, Final residual = 7.80923e-08, No Iterations 0
GAMG:  Solving for p_rgh, Initial residual = 7.80923e-08, Final residual = 7.80923e-08, No Iterations 0
GAMG:  Solving for p_rgh, Initial residual = 7.80923e-08, Final residual = 7.80923e-08, No Iterations 0
time step continuity errors : sum local = 5.03517e-07, global = 3.63545e-10, cumulative = 3.63545e-10
ExecutionTime = 393.84 s  ClockTime = 744 s

volFieldValue volAvgFinTemperature write:
    volAverage() of T = 599.426

volFieldValue volAvgHeaterTemperature write:
    volAverage() of T = 622.452

surfaceFieldValue averageTempHeaterFinInterface write:
    areaAverage(heater_to_fins) of T = 610.588

Region: fluid Courant Number mean: 1330.8 max: 53280.2
Region: fins Diffusion Number mean: 131.174 max: 167602
Region: heater Diffusion Number mean: 70.4493 max: 522.211
Time = 1990s


Solving for solid region fins
GAMG:  Solving for e, Initial residual = 9.98499e-07, Final residual = 9.98499e-07, No Iterations 0
Min/max T:592.889 612.346

Solving for solid region heater
GAMG:  Solving for e, Initial residual = 4.9484e-07, Final residual = 4.9484e-07, No Iterations 0
Min/max T:608.033 628.342

Solving for fluid region fluid
DILUPBiCGStab:  Solving for Ux, Initial residual = 1.44898e-10, Final residual = 1.44898e-10, No Iterations 0
DILUPBiCGStab:  Solving for Uy, Initial residual = 6.6094e-10, Final residual = 6.6094e-10, No Iterations 0
DILUPBiCGStab:  Solving for Uz, Initial residual = 5.88433e-10, Final residual = 5.88433e-10, No Iterations 0
DILUPBiCGStab:  Solving for h, Initial residual = 0.000405584, Final residual = 1.53263e-05, No Iterations 1
Min/max T:295.898 611.278
GAMG:  Solving for p_rgh, Initial residual = 9.25996e-08, Final residual = 9.25996e-08, No Iterations 0
GAMG:  Solving for p_rgh, Initial residual = 9.25996e-08, Final residual = 9.25996e-08, No Iterations 0
GAMG:  Solving for p_rgh, Initial residual = 9.25996e-08, Final residual = 9.25996e-08, No Iterations 0
time step continuity errors : sum local = 5.97056e-07, global = 2.62896e-10, cumulative = 2.62896e-10
ExecutionTime = 394.096 s  ClockTime = 745 s

volFieldValue volAvgFinTemperature write:
    volAverage() of T = 599.426

volFieldValue volAvgHeaterTemperature write:
    volAverage() of T = 622.452

surfaceFieldValue averageTempHeaterFinInterface write:
    areaAverage(heater_to_fins) of T = 610.588

Region: fluid Courant Number mean: 1330.8 max: 53280.2
Region: fins Diffusion Number mean: 131.174 max: 167602
Region: heater Diffusion Number mean: 70.4493 max: 522.211
Time = 1991s


Solving for solid region fins
GAMG:  Solving for e, Initial residual = 9.985e-07, Final residual = 9.985e-07, No Iterations 0
Min/max T:592.889 612.346

Solving for solid region heater
GAMG:  Solving for e, Initial residual = 4.9484e-07, Final residual = 4.9484e-07, No Iterations 0
Min/max T:608.033 628.342

Solving for fluid region fluid
DILUPBiCGStab:  Solving for Ux, Initial residual = 1.38435e-10, Final residual = 1.38435e-10, No Iterations 0
DILUPBiCGStab:  Solving for Uy, Initial residual = 6.20106e-10, Final residual = 6.20106e-10, No Iterations 0
DILUPBiCGStab:  Solving for Uz, Initial residual = 5.53505e-10, Final residual = 5.53505e-10, No Iterations 0
DILUPBiCGStab:  Solving for h, Initial residual = 0.000405584, Final residual = 1.53263e-05, No Iterations 1
Min/max T:295.898 611.278
GAMG:  Solving for p_rgh, Initial residual = 1.03959e-07, Final residual = 6.35707e-09, No Iterations 1
GAMG:  Solving for p_rgh, Initial residual = 4.79476e-08, Final residual = 4.79476e-08, No Iterations 0
GAMG:  Solving for p_rgh, Initial residual = 4.79476e-08, Final residual = 4.79476e-08, No Iterations 0
time step continuity errors : sum local = 3.09153e-07, global = 4.07305e-11, cumulative = 4.07305e-11
ExecutionTime = 394.316 s  ClockTime = 745 s

volFieldValue volAvgFinTemperature write:
    volAverage() of T = 599.426

volFieldValue volAvgHeaterTemperature write:
    volAverage() of T = 622.452

surfaceFieldValue averageTempHeaterFinInterface write:
    areaAverage(heater_to_fins) of T = 610.588

Region: fluid Courant Number mean: 1330.8 max: 53280.2
Region: fins Diffusion Number mean: 131.174 max: 167602
Region: heater Diffusion Number mean: 70.4493 max: 522.211
Time = 1992s


Solving for solid region fins
GAMG:  Solving for e, Initial residual = 9.985e-07, Final residual = 9.985e-07, No Iterations 0
Min/max T:592.889 612.346

Solving for solid region heater
GAMG:  Solving for e, Initial residual = 4.9484e-07, Final residual = 4.9484e-07, No Iterations 0
Min/max T:608.033 628.342

Solving for fluid region fluid
DILUPBiCGStab:  Solving for Ux, Initial residual = 2.49066e-10, Final residual = 2.49066e-10, No Iterations 0
DILUPBiCGStab:  Solving for Uy, Initial residual = 1.36881e-09, Final residual = 1.36881e-09, No Iterations 0
DILUPBiCGStab:  Solving for Uz, Initial residual = 1.08207e-09, Final residual = 1.08207e-09, No Iterations 0
DILUPBiCGStab:  Solving for h, Initial residual = 0.000405583, Final residual = 1.53264e-05, No Iterations 1
Min/max T:295.898 611.278
GAMG:  Solving for p_rgh, Initial residual = 1.07532e-07, Final residual = 8.36396e-09, No Iterations 1
GAMG:  Solving for p_rgh, Initial residual = 8.86596e-08, Final residual = 8.86596e-08, No Iterations 0
GAMG:  Solving for p_rgh, Initial residual = 8.86596e-08, Final residual = 8.86596e-08, No Iterations 0
time step continuity errors : sum local = 5.71652e-07, global = -1.88105e-10, cumulative = -1.88105e-10
ExecutionTime = 394.543 s  ClockTime = 746 s

volFieldValue volAvgFinTemperature write:
    volAverage() of T = 599.426

volFieldValue volAvgHeaterTemperature write:
    volAverage() of T = 622.452

surfaceFieldValue averageTempHeaterFinInterface write:
    areaAverage(heater_to_fins) of T = 610.588

Region: fluid Courant Number mean: 1330.8 max: 53280.2
Region: fins Diffusion Number mean: 131.174 max: 167602
Region: heater Diffusion Number mean: 70.4493 max: 522.211
Time = 1993s


Solving for solid region fins
GAMG:  Solving for e, Initial residual = 9.985e-07, Final residual = 9.985e-07, No Iterations 0
Min/max T:592.889 612.346

Solving for solid region heater
GAMG:  Solving for e, Initial residual = 4.9484e-07, Final residual = 4.9484e-07, No Iterations 0
Min/max T:608.033 628.342

Solving for fluid region fluid
DILUPBiCGStab:  Solving for Ux, Initial residual = 2.8211e-10, Final residual = 2.8211e-10, No Iterations 0
DILUPBiCGStab:  Solving for Uy, Initial residual = 1.46154e-09, Final residual = 1.46154e-09, No Iterations 0
DILUPBiCGStab:  Solving for Uz, Initial residual = 1.2923e-09, Final residual = 1.2923e-09, No Iterations 0
DILUPBiCGStab:  Solving for h, Initial residual = 0.000405584, Final residual = 1.53263e-05, No Iterations 1
Min/max T:295.898 611.278
GAMG:  Solving for p_rgh, Initial residual = 1.3517e-07, Final residual = 8.58355e-09, No Iterations 1
GAMG:  Solving for p_rgh, Initial residual = 1.0547e-07, Final residual = 3.9724e-09, No Iterations 1
GAMG:  Solving for p_rgh, Initial residual = 5.69659e-08, Final residual = 5.69659e-08, No Iterations 0
time step continuity errors : sum local = 3.673e-07, global = -9.22268e-11, cumulative = -9.22268e-11
ExecutionTime = 394.704 s  ClockTime = 746 s

volFieldValue volAvgFinTemperature write:
    volAverage() of T = 599.426

volFieldValue volAvgHeaterTemperature write:
    volAverage() of T = 622.452

surfaceFieldValue averageTempHeaterFinInterface write:
    areaAverage(heater_to_fins) of T = 610.588

Region: fluid Courant Number mean: 1330.8 max: 53280.2
Region: fins Diffusion Number mean: 131.174 max: 167602
Region: heater Diffusion Number mean: 70.4493 max: 522.211
Time = 1994s


Solving for solid region fins
GAMG:  Solving for e, Initial residual = 9.985e-07, Final residual = 9.985e-07, No Iterations 0
Min/max T:592.889 612.346

Solving for solid region heater
GAMG:  Solving for e, Initial residual = 4.9484e-07, Final residual = 4.9484e-07, No Iterations 0
Min/max T:608.033 628.342

Solving for fluid region fluid
DILUPBiCGStab:  Solving for Ux, Initial residual = 1.44472e-10, Final residual = 1.44472e-10, No Iterations 0
DILUPBiCGStab:  Solving for Uy, Initial residual = 7.41634e-10, Final residual = 7.41634e-10, No Iterations 0
DILUPBiCGStab:  Solving for Uz, Initial residual = 7.02772e-10, Final residual = 7.02772e-10, No Iterations 0
DILUPBiCGStab:  Solving for h, Initial residual = 0.000405584, Final residual = 1.53263e-05, No Iterations 1
Min/max T:295.898 611.278
GAMG:  Solving for p_rgh, Initial residual = 7.03845e-08, Final residual = 7.03845e-08, No Iterations 0
GAMG:  Solving for p_rgh, Initial residual = 7.03845e-08, Final residual = 7.03845e-08, No Iterations 0
GAMG:  Solving for p_rgh, Initial residual = 7.03845e-08, Final residual = 7.03845e-08, No Iterations 0
time step continuity errors : sum local = 4.5382e-07, global = 8.68594e-13, cumulative = 8.68594e-13
ExecutionTime = 394.869 s  ClockTime = 746 s

volFieldValue volAvgFinTemperature write:
    volAverage() of T = 599.426

volFieldValue volAvgHeaterTemperature write:
    volAverage() of T = 622.452

surfaceFieldValue averageTempHeaterFinInterface write:
    areaAverage(heater_to_fins) of T = 610.588

Region: fluid Courant Number mean: 1330.8 max: 53280.2
Region: fins Diffusion Number mean: 131.174 max: 167602
Region: heater Diffusion Number mean: 70.4493 max: 522.211
Time = 1995s


Solving for solid region fins
GAMG:  Solving for e, Initial residual = 9.98499e-07, Final residual = 9.98499e-07, No Iterations 0
Min/max T:592.889 612.346

Solving for solid region heater
GAMG:  Solving for e, Initial residual = 4.9484e-07, Final residual = 4.9484e-07, No Iterations 0
Min/max T:608.033 628.342

Solving for fluid region fluid
DILUPBiCGStab:  Solving for Ux, Initial residual = 1.34912e-10, Final residual = 1.34912e-10, No Iterations 0
DILUPBiCGStab:  Solving for Uy, Initial residual = 6.73562e-10, Final residual = 6.73562e-10, No Iterations 0
DILUPBiCGStab:  Solving for Uz, Initial residual = 6.40133e-10, Final residual = 6.40133e-10, No Iterations 0
DILUPBiCGStab:  Solving for h, Initial residual = 0.000405584, Final residual = 1.53263e-05, No Iterations 1
Min/max T:295.898 611.278
GAMG:  Solving for p_rgh, Initial residual = 8.27143e-08, Final residual = 8.27143e-08, No Iterations 0
GAMG:  Solving for p_rgh, Initial residual = 8.27143e-08, Final residual = 8.27143e-08, No Iterations 0
GAMG:  Solving for p_rgh, Initial residual = 8.27143e-08, Final residual = 8.27143e-08, No Iterations 0
time step continuity errors : sum local = 5.33319e-07, global = 9.68044e-11, cumulative = 9.68044e-11
ExecutionTime = 395.016 s  ClockTime = 747 s

volFieldValue volAvgFinTemperature write:
    volAverage() of T = 599.426

volFieldValue volAvgHeaterTemperature write:
    volAverage() of T = 622.452

surfaceFieldValue averageTempHeaterFinInterface write:
    areaAverage(heater_to_fins) of T = 610.588

Region: fluid Courant Number mean: 1330.8 max: 53280.2
Region: fins Diffusion Number mean: 131.174 max: 167602
Region: heater Diffusion Number mean: 70.4493 max: 522.211
Time = 1996s


Solving for solid region fins
GAMG:  Solving for e, Initial residual = 9.985e-07, Final residual = 9.985e-07, No Iterations 0
Min/max T:592.889 612.346

Solving for solid region heater
GAMG:  Solving for e, Initial residual = 4.9484e-07, Final residual = 4.9484e-07, No Iterations 0
Min/max T:608.033 628.342

Solving for fluid region fluid
DILUPBiCGStab:  Solving for Ux, Initial residual = 1.29681e-10, Final residual = 1.29681e-10, No Iterations 0
DILUPBiCGStab:  Solving for Uy, Initial residual = 6.37873e-10, Final residual = 6.37873e-10, No Iterations 0
DILUPBiCGStab:  Solving for Uz, Initial residual = 6.24102e-10, Final residual = 6.24102e-10, No Iterations 0
DILUPBiCGStab:  Solving for h, Initial residual = 0.000405584, Final residual = 1.53263e-05, No Iterations 1
Min/max T:295.898 611.278
GAMG:  Solving for p_rgh, Initial residual = 9.24217e-08, Final residual = 9.24217e-08, No Iterations 0
GAMG:  Solving for p_rgh, Initial residual = 9.24217e-08, Final residual = 9.24217e-08, No Iterations 0
GAMG:  Solving for p_rgh, Initial residual = 9.24217e-08, Final residual = 9.24217e-08, No Iterations 0
time step continuity errors : sum local = 5.95909e-07, global = 1.95981e-10, cumulative = 1.95981e-10
ExecutionTime = 395.176 s  ClockTime = 747 s

volFieldValue volAvgFinTemperature write:
    volAverage() of T = 599.426

volFieldValue volAvgHeaterTemperature write:
    volAverage() of T = 622.452

surfaceFieldValue averageTempHeaterFinInterface write:
    areaAverage(heater_to_fins) of T = 610.588

Region: fluid Courant Number mean: 1330.8 max: 53280.2
Region: fins Diffusion Number mean: 131.174 max: 167602
Region: heater Diffusion Number mean: 70.4493 max: 522.211
Time = 1997s


Solving for solid region fins
GAMG:  Solving for e, Initial residual = 9.98501e-07, Final residual = 9.98501e-07, No Iterations 0
Min/max T:592.889 612.346

Solving for solid region heater
GAMG:  Solving for e, Initial residual = 4.9484e-07, Final residual = 4.9484e-07, No Iterations 0
Min/max T:608.033 628.342

Solving for fluid region fluid
DILUPBiCGStab:  Solving for Ux, Initial residual = 1.26476e-10, Final residual = 1.26476e-10, No Iterations 0
DILUPBiCGStab:  Solving for Uy, Initial residual = 6.16714e-10, Final residual = 6.16714e-10, No Iterations 0
DILUPBiCGStab:  Solving for Uz, Initial residual = 6.24322e-10, Final residual = 6.24322e-10, No Iterations 0
DILUPBiCGStab:  Solving for h, Initial residual = 0.000405584, Final residual = 1.53264e-05, No Iterations 1
Min/max T:295.898 611.278
GAMG:  Solving for p_rgh, Initial residual = 1.01351e-07, Final residual = 9.92914e-09, No Iterations 1
GAMG:  Solving for p_rgh, Initial residual = 5.05242e-08, Final residual = 5.05242e-08, No Iterations 0
GAMG:  Solving for p_rgh, Initial residual = 5.05242e-08, Final residual = 5.05242e-08, No Iterations 0
time step continuity errors : sum local = 3.25766e-07, global = 3.06219e-10, cumulative = 3.06219e-10
ExecutionTime = 395.306 s  ClockTime = 747 s

volFieldValue volAvgFinTemperature write:
    volAverage() of T = 599.426

volFieldValue volAvgHeaterTemperature write:
    volAverage() of T = 622.452

surfaceFieldValue averageTempHeaterFinInterface write:
    areaAverage(heater_to_fins) of T = 610.588

Region: fluid Courant Number mean: 1330.8 max: 53280.2
Region: fins Diffusion Number mean: 131.174 max: 167602
Region: heater Diffusion Number mean: 70.4493 max: 522.211
Time = 1998s


Solving for solid region fins
GAMG:  Solving for e, Initial residual = 9.98501e-07, Final residual = 9.98501e-07, No Iterations 0
Min/max T:592.889 612.346

Solving for solid region heater
GAMG:  Solving for e, Initial residual = 4.9484e-07, Final residual = 4.9484e-07, No Iterations 0
Min/max T:608.033 628.342

Solving for fluid region fluid
DILUPBiCGStab:  Solving for Ux, Initial residual = 2.44757e-10, Final residual = 2.44757e-10, No Iterations 0
DILUPBiCGStab:  Solving for Uy, Initial residual = 1.51511e-09, Final residual = 1.51511e-09, No Iterations 0
DILUPBiCGStab:  Solving for Uz, Initial residual = 1.1983e-09, Final residual = 1.1983e-09, No Iterations 0
DILUPBiCGStab:  Solving for h, Initial residual = 0.000405584, Final residual = 1.53264e-05, No Iterations 1
Min/max T:295.898 611.278
GAMG:  Solving for p_rgh, Initial residual = 1.0203e-07, Final residual = 7.56012e-09, No Iterations 1
GAMG:  Solving for p_rgh, Initial residual = 7.0732e-08, Final residual = 7.0732e-08, No Iterations 0
GAMG:  Solving for p_rgh, Initial residual = 7.0732e-08, Final residual = 7.0732e-08, No Iterations 0
time step continuity errors : sum local = 4.5606e-07, global = 2.94869e-10, cumulative = 2.94869e-10
ExecutionTime = 395.433 s  ClockTime = 748 s

volFieldValue volAvgFinTemperature write:
    volAverage() of T = 599.426

volFieldValue volAvgHeaterTemperature write:
    volAverage() of T = 622.452

surfaceFieldValue averageTempHeaterFinInterface write:
    areaAverage(heater_to_fins) of T = 610.588

Region: fluid Courant Number mean: 1330.8 max: 53280.2
Region: fins Diffusion Number mean: 131.174 max: 167602
Region: heater Diffusion Number mean: 70.4493 max: 522.211
Time = 1999s


Solving for solid region fins
GAMG:  Solving for e, Initial residual = 9.98501e-07, Final residual = 9.98501e-07, No Iterations 0
Min/max T:592.889 612.346

Solving for solid region heater
GAMG:  Solving for e, Initial residual = 4.9484e-07, Final residual = 4.9484e-07, No Iterations 0
Min/max T:608.033 628.342

Solving for fluid region fluid
DILUPBiCGStab:  Solving for Ux, Initial residual = 2.59595e-10, Final residual = 2.59595e-10, No Iterations 0
DILUPBiCGStab:  Solving for Uy, Initial residual = 1.46512e-09, Final residual = 1.46512e-09, No Iterations 0
DILUPBiCGStab:  Solving for Uz, Initial residual = 1.25946e-09, Final residual = 1.25946e-09, No Iterations 0
DILUPBiCGStab:  Solving for h, Initial residual = 0.000405584, Final residual = 1.53263e-05, No Iterations 1
Min/max T:295.898 611.278
GAMG:  Solving for p_rgh, Initial residual = 1.10215e-07, Final residual = 6.5131e-09, No Iterations 1
GAMG:  Solving for p_rgh, Initial residual = 7.98659e-08, Final residual = 7.98659e-08, No Iterations 0
GAMG:  Solving for p_rgh, Initial residual = 7.98659e-08, Final residual = 7.98659e-08, No Iterations 0
time step continuity errors : sum local = 5.14953e-07, global = 2.49546e-10, cumulative = 2.49546e-10
ExecutionTime = 395.569 s  ClockTime = 748 s

volFieldValue volAvgFinTemperature write:
    volAverage() of T = 599.426

volFieldValue volAvgHeaterTemperature write:
    volAverage() of T = 622.452

surfaceFieldValue averageTempHeaterFinInterface write:
    areaAverage(heater_to_fins) of T = 610.588

Region: fluid Courant Number mean: 1330.8 max: 53280.2
Region: fins Diffusion Number mean: 131.174 max: 167602
Region: heater Diffusion Number mean: 70.4493 max: 522.211
Time = 2000s


Solving for solid region fins
GAMG:  Solving for e, Initial residual = 9.98501e-07, Final residual = 9.98501e-07, No Iterations 0
Min/max T:592.889 612.346

Solving for solid region heater
GAMG:  Solving for e, Initial residual = 4.9484e-07, Final residual = 4.9484e-07, No Iterations 0
Min/max T:608.033 628.342

Solving for fluid region fluid
DILUPBiCGStab:  Solving for Ux, Initial residual = 2.49374e-10, Final residual = 2.49374e-10, No Iterations 0
DILUPBiCGStab:  Solving for Uy, Initial residual = 1.34605e-09, Final residual = 1.34605e-09, No Iterations 0
DILUPBiCGStab:  Solving for Uz, Initial residual = 1.28383e-09, Final residual = 1.28383e-09, No Iterations 0
DILUPBiCGStab:  Solving for h, Initial residual = 0.000405583, Final residual = 1.53264e-05, No Iterations 1
Min/max T:295.898 611.278
GAMG:  Solving for p_rgh, Initial residual = 1.36854e-07, Final residual = 7.62146e-09, No Iterations 1
GAMG:  Solving for p_rgh, Initial residual = 9.66612e-08, Final residual = 9.66612e-08, No Iterations 0
GAMG:  Solving for p_rgh, Initial residual = 9.66612e-08, Final residual = 9.66612e-08, No Iterations 0
time step continuity errors : sum local = 6.23244e-07, global = 3.71038e-11, cumulative = 3.71038e-11
ExecutionTime = 395.959 s  ClockTime = 749 s

volFieldValue volAvgFinTemperature write:
    volAverage() of T = 599.426

volFieldValue volAvgHeaterTemperature write:
    volAverage() of T = 622.452

surfaceFieldValue averageTempHeaterFinInterface write:
    areaAverage(heater_to_fins) of T = 610.588

End

