/*---------------------------------------------------------------------------*\
  =========                 |
  \\      /  F ield         | OpenFOAM: The Open Source CFD Toolbox
   \\    /   O peration     | Website:  https://openfoam.org
    \\  /    A nd           | Version:  10
     \\/     M anipulation  |
\*---------------------------------------------------------------------------*/
Build  : 10-c4cf895ad8fa
Exec   : chtMultiRegionFoam
Date   : Nov 01 2023
Time   : 09:05:15
Host   : "alexesn"
PID    : 7362
I/O    : uncollated
Case   : /mnt/c/Users/sasch/OneDrive/Desktop/MEPhI/Project_practice/FOAM_project/heatExchanger/all_auto/case_10_10
nProcs : 1
sigFpe : Enabling floating point exception trapping (FOAM_SIGFPE).
fileModificationChecking : Monitoring run-time modified files using timeStampMaster (fileModificationSkew 10)
allowSystemOperations : Allowing user-supplied system call operations

// * * * * * * * * * * * * * * * * * * * * * * * * * * * * * * * * * * * * * //
Create time

Create fluid mesh for region fluid for time = 0

Create solid mesh for region fins for time = 0

Create solid mesh for region heater for time = 0


PIMPLE: Region fluid
PIMPLE: No convergence criteria found


PIMPLE: Region fins
PIMPLE: No convergence criteria found


PIMPLE: Region heater
PIMPLE: No convergence criteria found


PIMPLE: Operating solver in steady-state mode with 1 outer corrector
PIMPLE: Operating solver in SIMPLE mode


*** Reading fluid mesh thermophysical properties for region fluid

    Adding to thermoFluid

Selecting thermodynamics package 
{
    type            heRhoThermo;
    mixture         pureMixture;
    transport       const;
    thermo          hConst;
    equationOfState rhoConst;
    specie          specie;
    energy          sensibleEnthalpy;
}

    Adding to rhoFluid

    Adding to UFluid

    Adding to phiFluid

    Adding to gFluid

    Adding to hRefFluid

    Adding to pRefFluid

    Adding to ghFluid

    Adding to ghfFluid

    Adding to turbulenceFluid

Selecting turbulence model type laminar
Selecting laminar stress model Stokes
    Adding to thermophysicalTransport

Selecting thermophysical transport type laminar
Selecting default laminar thermophysical transport model unityLewisFourier
    Adding to reactionFluid

Combustion model not active: combustionProperties not found
Selecting combustion model none
    Adding to KFluid

    Adding to dpdtFluid

    Adding to fieldsFluid

    Adding MRF

No MRF models present

    Adding fvModelsFluid

    Adding fvConstraintsFluid

Creating fvConstraints from "system/fvConstraints"

Selecting finite volume constraint type limitTemperature
    Name: limitT
    - selecting all cells
    - selected 10303 cell(s) with volume 0.00149667
*** Reading solid mesh thermophysical properties for region fins

    Adding to thermoSolid

Selecting thermodynamics package 
{
    type            heSolidThermo;
    mixture         pureMixture;
    transport       constIsoSolid;
    thermo          eConst;
    equationOfState rhoConst;
    specie          specie;
    energy          sensibleInternalEnergy;
}

    Adding to fvModelsSolid

    Adding fvConstraintsSolid

*** Reading solid mesh thermophysical properties for region heater

    Adding to thermoSolid

Selecting thermodynamics package 
{
    type            heSolidThermo;
    mixture         pureMixture;
    transport       constIsoSolid;
    thermo          eConst;
    equationOfState rhoConst;
    specie          specie;
    energy          sensibleInternalEnergy;
}

    Adding to fvModelsSolid

Creating fvModels from "constant/fvModels"

Selecting finite volume model type heatSource
    Name: energySource
    - selecting all cells
    - selected 641 cell(s) with volume 1e-06
    Adding fvConstraintsSolid

Region: fluid Courant Number mean: 1326.2 max: 55891.8
Region: fins Diffusion Number mean: 122.36 max: 10668.6
Region: heater Diffusion Number mean: 73.8557 max: 560.851








surfaceFieldValue averageTempHeaterFinInterface:
    total faces  = 61
    total area   = 0.0001


volFieldValue volAvgFinTemperature write:
    volAverage() of T = 296.9

volFieldValue volAvgHeaterTemperature write:
    volAverage() of T = 296.9

surfaceFieldValue averageTempHeaterFinInterface write:
    areaAverage(heater_to_fins) of T = 296.9

Region: fluid Courant Number mean: 1326.2 max: 55891.8
Region: fins Diffusion Number mean: 122.36 max: 10668.6
Region: heater Diffusion Number mean: 73.8557 max: 560.851
Time = 1s


Solving for solid region fins
GAMG:  Solving for e, Initial residual = 0.983524, Final residual = 0.0430942, No Iterations 1
Min/max T:296.9 296.9

Solving for solid region heater
GAMG:  Solving for e, Initial residual = 1, Final residual = 0.0704525, No Iterations 3
Min/max T:296.9 314.039

Solving for fluid region fluid
DILUPBiCGStab:  Solving for Ux, Initial residual = 1, Final residual = 0.0222754, No Iterations 1
DILUPBiCGStab:  Solving for Uy, Initial residual = 1, Final residual = 0.028854, No Iterations 1
DILUPBiCGStab:  Solving for Uz, Initial residual = 1, Final residual = 0.0316307, No Iterations 1
DILUPBiCGStab:  Solving for h, Initial residual = 1, Final residual = 0.0680319, No Iterations 1
Min/max T:295.413 297.758
GAMG:  Solving for p_rgh, Initial residual = 1, Final residual = 0.0099629, No Iterations 7
GAMG:  Solving for p_rgh, Initial residual = 0.444991, Final residual = 0.00253931, No Iterations 2
GAMG:  Solving for p_rgh, Initial residual = 0.0391103, Final residual = 0.000182827, No Iterations 3
time step continuity errors : sum local = 0.0100657, global = -0.00378078, cumulative = -0.00378078
ExecutionTime = 7.07701 s  ClockTime = 12 s

volFieldValue volAvgFinTemperature write:
    volAverage() of T = 296.9

volFieldValue volAvgHeaterTemperature write:
    volAverage() of T = 308.543

surfaceFieldValue averageTempHeaterFinInterface write:
    areaAverage(heater_to_fins) of T = 296.9

Region: fluid Courant Number mean: 1327.12 max: 119999
Region: fins Diffusion Number mean: 122.36 max: 10668.6
Region: heater Diffusion Number mean: 73.8557 max: 560.851
Time = 2s


Solving for solid region fins
GAMG:  Solving for e, Initial residual = 1, Final residual = 0.0289413, No Iterations 1
Min/max T:296.899 299.507

Solving for solid region heater
GAMG:  Solving for e, Initial residual = 0.27524, Final residual = 0.0065756, No Iterations 1
Min/max T:298.661 316.516

Solving for fluid region fluid
DILUPBiCGStab:  Solving for Ux, Initial residual = 0.205033, Final residual = 0.00888651, No Iterations 1
DILUPBiCGStab:  Solving for Uy, Initial residual = 0.372416, Final residual = 0.0157212, No Iterations 1
DILUPBiCGStab:  Solving for Uz, Initial residual = 0.408201, Final residual = 0.0175297, No Iterations 1
DILUPBiCGStab:  Solving for h, Initial residual = 0.203094, Final residual = 0.0162008, No Iterations 1
Min/max T:294.829 299.318
GAMG:  Solving for p_rgh, Initial residual = 0.24314, Final residual = 0.00137818, No Iterations 6
GAMG:  Solving for p_rgh, Initial residual = 0.712225, Final residual = 0.00435183, No Iterations 2
GAMG:  Solving for p_rgh, Initial residual = 0.127132, Final residual = 0.000931929, No Iterations 3
time step continuity errors : sum local = 0.0276691, global = 0.00760304, cumulative = 0.00760304
ExecutionTime = 7.53085 s  ClockTime = 12 s

volFieldValue volAvgFinTemperature write:
    volAverage() of T = 299.126

volFieldValue volAvgHeaterTemperature write:
    volAverage() of T = 311.025

surfaceFieldValue averageTempHeaterFinInterface write:
    areaAverage(heater_to_fins) of T = 299.205

Region: fluid Courant Number mean: 1327.38 max: 121886
Region: fins Diffusion Number mean: 122.36 max: 10668.6
Region: heater Diffusion Number mean: 73.8557 max: 560.851
Time = 3s


Solving for solid region fins
GAMG:  Solving for e, Initial residual = 0.53707, Final residual = 0.0117123, No Iterations 1
Min/max T:299.033 301.722

Solving for solid region heater
GAMG:  Solving for e, Initial residual = 0.0914292, Final residual = 0.0030963, No Iterations 1
Min/max T:300.961 319.222

Solving for fluid region fluid
DILUPBiCGStab:  Solving for Ux, Initial residual = 0.0862158, Final residual = 0.00373271, No Iterations 1
DILUPBiCGStab:  Solving for Uy, Initial residual = 0.308376, Final residual = 0.0127421, No Iterations 1
DILUPBiCGStab:  Solving for Uz, Initial residual = 0.31045, Final residual = 0.0133598, No Iterations 1
DILUPBiCGStab:  Solving for h, Initial residual = 0.0935904, Final residual = 0.00760921, No Iterations 1
Min/max T:296.727 301.45
GAMG:  Solving for p_rgh, Initial residual = 0.197535, Final residual = 0.00105454, No Iterations 6
GAMG:  Solving for p_rgh, Initial residual = 0.715622, Final residual = 0.00440908, No Iterations 2
GAMG:  Solving for p_rgh, Initial residual = 0.123978, Final residual = 0.000848357, No Iterations 3
time step continuity errors : sum local = 0.00998009, global = -0.00283911, cumulative = -0.00283911
ExecutionTime = 8.11523 s  ClockTime = 13 s

volFieldValue volAvgFinTemperature write:
    volAverage() of T = 301.356

volFieldValue volAvgHeaterTemperature write:
    volAverage() of T = 313.603

surfaceFieldValue averageTempHeaterFinInterface write:
    areaAverage(heater_to_fins) of T = 301.493

Region: fluid Courant Number mean: 1326.6 max: 115532
Region: fins Diffusion Number mean: 122.36 max: 10668.6
Region: heater Diffusion Number mean: 73.8557 max: 560.851
Time = 4s


Solving for solid region fins
GAMG:  Solving for e, Initial residual = 0.471318, Final residual = 0.0101184, No Iterations 1
Min/max T:301.27 304.017

Solving for solid region heater
GAMG:  Solving for e, Initial residual = 0.0785204, Final residual = 0.00187273, No Iterations 1
Min/max T:303.208 321.726

Solving for fluid region fluid
DILUPBiCGStab:  Solving for Ux, Initial residual = 0.0352982, Final residual = 0.00153153, No Iterations 1
DILUPBiCGStab:  Solving for Uy, Initial residual = 0.0953419, Final residual = 0.0039679, No Iterations 1
DILUPBiCGStab:  Solving for Uz, Initial residual = 0.0937811, Final residual = 0.0040233, No Iterations 1
DILUPBiCGStab:  Solving for h, Initial residual = 0.0284646, Final residual = 0.00242684, No Iterations 1
Min/max T:296.596 303.713
GAMG:  Solving for p_rgh, Initial residual = 0.166317, Final residual = 0.000820838, No Iterations 6
GAMG:  Solving for p_rgh, Initial residual = 0.450381, Final residual = 0.00268448, No Iterations 2
GAMG:  Solving for p_rgh, Initial residual = 0.0667793, Final residual = 0.000407077, No Iterations 3
time step continuity errors : sum local = 0.00365052, global = 0.00106622, cumulative = 0.00106622
ExecutionTime = 8.62384 s  ClockTime = 13 s

volFieldValue volAvgFinTemperature write:
    volAverage() of T = 303.589

volFieldValue volAvgHeaterTemperature write:
    volAverage() of T = 316.04

surfaceFieldValue averageTempHeaterFinInterface write:
    areaAverage(heater_to_fins) of T = 303.775

Region: fluid Courant Number mean: 1326.4 max: 114883
Region: fins Diffusion Number mean: 122.36 max: 10668.6
Region: heater Diffusion Number mean: 73.8557 max: 560.851
Time = 5s


Solving for solid region fins
GAMG:  Solving for e, Initial residual = 0.444716, Final residual = 0.0100918, No Iterations 1
Min/max T:303.484 306.299

Solving for solid region heater
GAMG:  Solving for e, Initial residual = 0.0733752, Final residual = 0.00114185, No Iterations 1
Min/max T:305.472 324.147

Solving for fluid region fluid
DILUPBiCGStab:  Solving for Ux, Initial residual = 0.0144422, Final residual = 0.000617456, No Iterations 1
DILUPBiCGStab:  Solving for Uy, Initial residual = 0.0515442, Final residual = 0.00201826, No Iterations 1
DILUPBiCGStab:  Solving for Uz, Initial residual = 0.042348, Final residual = 0.00182644, No Iterations 1
DILUPBiCGStab:  Solving for h, Initial residual = 0.015138, Final residual = 0.0013603, No Iterations 1
Min/max T:296.832 305.979
GAMG:  Solving for p_rgh, Initial residual = 0.119246, Final residual = 0.000905155, No Iterations 5
GAMG:  Solving for p_rgh, Initial residual = 0.321094, Final residual = 0.00193811, No Iterations 2
GAMG:  Solving for p_rgh, Initial residual = 0.0433632, Final residual = 0.000242344, No Iterations 3
time step continuity errors : sum local = 0.00139651, global = -0.000262849, cumulative = -0.000262849
ExecutionTime = 9.16554 s  ClockTime = 14 s

volFieldValue volAvgFinTemperature write:
    volAverage() of T = 305.821

volFieldValue volAvgHeaterTemperature write:
    volAverage() of T = 318.411

surfaceFieldValue averageTempHeaterFinInterface write:
    areaAverage(heater_to_fins) of T = 306.056

Region: fluid Courant Number mean: 1326.04 max: 113346
Region: fins Diffusion Number mean: 122.36 max: 10668.6
Region: heater Diffusion Number mean: 73.8557 max: 560.851
Time = 6s


Solving for solid region fins
GAMG:  Solving for e, Initial residual = 0.424781, Final residual = 0.00993065, No Iterations 1
Min/max T:305.68 308.57

Solving for solid region heater
GAMG:  Solving for e, Initial residual = 0.071168, Final residual = 0.000706278, No Iterations 1
Min/max T:307.736 326.503

Solving for fluid region fluid
DILUPBiCGStab:  Solving for Ux, Initial residual = 0.00735823, Final residual = 0.000321477, No Iterations 1
DILUPBiCGStab:  Solving for Uy, Initial residual = 0.0238564, Final residual = 0.000960561, No Iterations 1
DILUPBiCGStab:  Solving for Uz, Initial residual = 0.0200192, Final residual = 0.000867818, No Iterations 1
DILUPBiCGStab:  Solving for h, Initial residual = 0.0102742, Final residual = 0.000842799, No Iterations 1
Min/max T:296.859 308.236
GAMG:  Solving for p_rgh, Initial residual = 0.0874606, Final residual = 0.000592016, No Iterations 5
GAMG:  Solving for p_rgh, Initial residual = 0.11608, Final residual = 0.000680657, No Iterations 2
GAMG:  Solving for p_rgh, Initial residual = 0.0151068, Final residual = 6.63503e-05, No Iterations 3
time step continuity errors : sum local = 0.000445322, global = -6.19273e-05, cumulative = -6.19273e-05
ExecutionTime = 9.78123 s  ClockTime = 15 s

volFieldValue volAvgFinTemperature write:
    volAverage() of T = 308.044

volFieldValue volAvgHeaterTemperature write:
    volAverage() of T = 320.735

surfaceFieldValue averageTempHeaterFinInterface write:
    areaAverage(heater_to_fins) of T = 308.327

Region: fluid Courant Number mean: 1325.79 max: 111030
Region: fins Diffusion Number mean: 122.36 max: 10668.6
Region: heater Diffusion Number mean: 73.8557 max: 560.851
Time = 7s


Solving for solid region fins
GAMG:  Solving for e, Initial residual = 0.406876, Final residual = 0.00978506, No Iterations 1
Min/max T:307.869 310.827

Solving for solid region heater
GAMG:  Solving for e, Initial residual = 0.0695246, Final residual = 0.000436959, No Iterations 1
Min/max T:309.992 328.813

Solving for fluid region fluid
DILUPBiCGStab:  Solving for Ux, Initial residual = 0.00361215, Final residual = 0.000144001, No Iterations 1
DILUPBiCGStab:  Solving for Uy, Initial residual = 0.0148226, Final residual = 0.000502081, No Iterations 1
DILUPBiCGStab:  Solving for Uz, Initial residual = 0.0102598, Final residual = 0.000405364, No Iterations 1
DILUPBiCGStab:  Solving for h, Initial residual = 0.00774659, Final residual = 0.000598737, No Iterations 1
Min/max T:296.868 310.482
GAMG:  Solving for p_rgh, Initial residual = 0.044888, Final residual = 0.000230686, No Iterations 5
GAMG:  Solving for p_rgh, Initial residual = 0.0544072, Final residual = 0.000314472, No Iterations 2
GAMG:  Solving for p_rgh, Initial residual = 0.00713487, Final residual = 2.88758e-05, No Iterations 3
time step continuity errors : sum local = 0.000174995, global = 4.62984e-05, cumulative = 4.62984e-05
ExecutionTime = 10.3392 s  ClockTime = 15 s

volFieldValue volAvgFinTemperature write:
    volAverage() of T = 310.254

volFieldValue volAvgHeaterTemperature write:
    volAverage() of T = 323.024

surfaceFieldValue averageTempHeaterFinInterface write:
    areaAverage(heater_to_fins) of T = 310.585

Region: fluid Courant Number mean: 1325.54 max: 108493
Region: fins Diffusion Number mean: 122.36 max: 10668.6
Region: heater Diffusion Number mean: 73.8557 max: 560.851
Time = 8s


Solving for solid region fins
GAMG:  Solving for e, Initial residual = 0.390149, Final residual = 0.00954521, No Iterations 1
Min/max T:310.046 313.071

Solving for solid region heater
GAMG:  Solving for e, Initial residual = 0.0683483, Final residual = 0.000270579, No Iterations 1
Min/max T:312.237 331.087

Solving for fluid region fluid
DILUPBiCGStab:  Solving for Ux, Initial residual = 0.0030365, Final residual = 0.000132487, No Iterations 1
DILUPBiCGStab:  Solving for Uy, Initial residual = 0.0119446, Final residual = 0.000446353, No Iterations 1
DILUPBiCGStab:  Solving for Uz, Initial residual = 0.00906969, Final residual = 0.000384182, No Iterations 1
DILUPBiCGStab:  Solving for h, Initial residual = 0.00622341, Final residual = 0.00045564, No Iterations 1
Min/max T:296.86 312.715
GAMG:  Solving for p_rgh, Initial residual = 0.0335276, Final residual = 0.000269048, No Iterations 4
GAMG:  Solving for p_rgh, Initial residual = 0.0205211, Final residual = 0.000126615, No Iterations 2
GAMG:  Solving for p_rgh, Initial residual = 0.00271882, Final residual = 1.78056e-05, No Iterations 3
time step continuity errors : sum local = 0.000113418, global = -1.17327e-05, cumulative = -1.17327e-05
ExecutionTime = 10.759 s  ClockTime = 16 s

volFieldValue volAvgFinTemperature write:
    volAverage() of T = 312.451

volFieldValue volAvgHeaterTemperature write:
    volAverage() of T = 325.285

surfaceFieldValue averageTempHeaterFinInterface write:
    areaAverage(heater_to_fins) of T = 312.829

Region: fluid Courant Number mean: 1325.3 max: 105891
Region: fins Diffusion Number mean: 122.36 max: 10668.6
Region: heater Diffusion Number mean: 73.8557 max: 560.851
Time = 9s


Solving for solid region fins
GAMG:  Solving for e, Initial residual = 0.374082, Final residual = 0.00927438, No Iterations 1
Min/max T:312.209 315.299

Solving for solid region heater
GAMG:  Solving for e, Initial residual = 0.0674251, Final residual = 0.000167279, No Iterations 1
Min/max T:314.468 333.334

Solving for fluid region fluid
DILUPBiCGStab:  Solving for Ux, Initial residual = 0.00252739, Final residual = 0.000108692, No Iterations 1
DILUPBiCGStab:  Solving for Uy, Initial residual = 0.0099794, Final residual = 0.000367106, No Iterations 1
DILUPBiCGStab:  Solving for Uz, Initial residual = 0.00693624, Final residual = 0.000291636, No Iterations 1
DILUPBiCGStab:  Solving for h, Initial residual = 0.00523534, Final residual = 0.000358254, No Iterations 1
Min/max T:296.855 314.933
GAMG:  Solving for p_rgh, Initial residual = 0.0262366, Final residual = 0.000133672, No Iterations 4
GAMG:  Solving for p_rgh, Initial residual = 0.0104144, Final residual = 7.39034e-05, No Iterations 2
GAMG:  Solving for p_rgh, Initial residual = 0.00141527, Final residual = 1.1321e-05, No Iterations 3
time step continuity errors : sum local = 7.08059e-05, global = -1.44656e-06, cumulative = -1.44656e-06
ExecutionTime = 11.1132 s  ClockTime = 16 s

volFieldValue volAvgFinTemperature write:
    volAverage() of T = 314.634

volFieldValue volAvgHeaterTemperature write:
    volAverage() of T = 327.523

surfaceFieldValue averageTempHeaterFinInterface write:
    areaAverage(heater_to_fins) of T = 315.059

Region: fluid Courant Number mean: 1325.08 max: 103387
Region: fins Diffusion Number mean: 122.36 max: 10668.6
Region: heater Diffusion Number mean: 73.8557 max: 560.851
Time = 10s


Solving for solid region fins
GAMG:  Solving for e, Initial residual = 0.358961, Final residual = 0.00896745, No Iterations 1
Min/max T:314.359 317.512

Solving for solid region heater
GAMG:  Solving for e, Initial residual = 0.066667, Final residual = 0.000103124, No Iterations 1
Min/max T:316.685 335.557

Solving for fluid region fluid
DILUPBiCGStab:  Solving for Ux, Initial residual = 0.00238438, Final residual = 0.000105178, No Iterations 1
DILUPBiCGStab:  Solving for Uy, Initial residual = 0.00927738, Final residual = 0.000361263, No Iterations 1
DILUPBiCGStab:  Solving for Uz, Initial residual = 0.00666133, Final residual = 0.000286277, No Iterations 1
DILUPBiCGStab:  Solving for h, Initial residual = 0.00452343, Final residual = 0.000295751, No Iterations 1
Min/max T:296.847 317.136
GAMG:  Solving for p_rgh, Initial residual = 0.0233029, Final residual = 0.000176391, No Iterations 3
GAMG:  Solving for p_rgh, Initial residual = 0.00533126, Final residual = 2.89644e-05, No Iterations 3
GAMG:  Solving for p_rgh, Initial residual = 0.000893543, Final residual = 6.07599e-06, No Iterations 3
time step continuity errors : sum local = 3.8511e-05, global = 6.84258e-06, cumulative = 6.84258e-06
ExecutionTime = 11.5473 s  ClockTime = 17 s

volFieldValue volAvgFinTemperature write:
    volAverage() of T = 316.801

volFieldValue volAvgHeaterTemperature write:
    volAverage() of T = 329.74

surfaceFieldValue averageTempHeaterFinInterface write:
    areaAverage(heater_to_fins) of T = 317.273

Region: fluid Courant Number mean: 1324.87 max: 101050
Region: fins Diffusion Number mean: 122.36 max: 10668.6
Region: heater Diffusion Number mean: 73.8557 max: 560.851
Time = 11s


Solving for solid region fins
GAMG:  Solving for e, Initial residual = 0.344718, Final residual = 0.00864448, No Iterations 1
Min/max T:316.494 319.71

Solving for solid region heater
GAMG:  Solving for e, Initial residual = 0.0660085, Final residual = 6.35841e-05, No Iterations 1
Min/max T:318.886 337.759

Solving for fluid region fluid
DILUPBiCGStab:  Solving for Ux, Initial residual = 0.00223726, Final residual = 9.88227e-05, No Iterations 1
DILUPBiCGStab:  Solving for Uy, Initial residual = 0.00846657, Final residual = 0.000334325, No Iterations 1
DILUPBiCGStab:  Solving for Uz, Initial residual = 0.00589124, Final residual = 0.00025381, No Iterations 1
DILUPBiCGStab:  Solving for h, Initial residual = 0.00401798, Final residual = 0.000252831, No Iterations 1
Min/max T:296.84 319.325
GAMG:  Solving for p_rgh, Initial residual = 0.0198845, Final residual = 0.000100403, No Iterations 3
GAMG:  Solving for p_rgh, Initial residual = 0.00380851, Final residual = 1.86066e-05, No Iterations 3
GAMG:  Solving for p_rgh, Initial residual = 0.000645839, Final residual = 3.80099e-06, No Iterations 3
time step continuity errors : sum local = 2.40691e-05, global = 4.46989e-06, cumulative = 4.46989e-06
ExecutionTime = 11.7006 s  ClockTime = 17 s

volFieldValue volAvgFinTemperature write:
    volAverage() of T = 318.954

volFieldValue volAvgHeaterTemperature write:
    volAverage() of T = 331.939

surfaceFieldValue averageTempHeaterFinInterface write:
    areaAverage(heater_to_fins) of T = 319.471

Region: fluid Courant Number mean: 1324.66 max: 98917
Region: fins Diffusion Number mean: 122.36 max: 10668.6
Region: heater Diffusion Number mean: 73.8557 max: 560.851
Time = 12s


Solving for solid region fins
GAMG:  Solving for e, Initial residual = 0.331364, Final residual = 0.00832349, No Iterations 1
Min/max T:318.616 321.893

Solving for solid region heater
GAMG:  Solving for e, Initial residual = 0.0654157, Final residual = 4.01544e-05, No Iterations 1
Min/max T:321.072 339.943

Solving for fluid region fluid
DILUPBiCGStab:  Solving for Ux, Initial residual = 0.00212539, Final residual = 9.4429e-05, No Iterations 1
DILUPBiCGStab:  Solving for Uy, Initial residual = 0.00803612, Final residual = 0.000323333, No Iterations 1
DILUPBiCGStab:  Solving for Uz, Initial residual = 0.00555692, Final residual = 0.000239814, No Iterations 1
DILUPBiCGStab:  Solving for h, Initial residual = 0.00361666, Final residual = 0.000226845, No Iterations 1
Min/max T:296.836 321.498
GAMG:  Solving for p_rgh, Initial residual = 0.0181095, Final residual = 9.09837e-05, No Iterations 3
GAMG:  Solving for p_rgh, Initial residual = 0.00335138, Final residual = 1.73264e-05, No Iterations 3
GAMG:  Solving for p_rgh, Initial residual = 0.00058144, Final residual = 4.39617e-06, No Iterations 3
time step continuity errors : sum local = 2.79462e-05, global = 3.80879e-06, cumulative = 3.80879e-06
ExecutionTime = 11.8699 s  ClockTime = 17 s

volFieldValue volAvgFinTemperature write:
    volAverage() of T = 321.092

volFieldValue volAvgHeaterTemperature write:
    volAverage() of T = 334.121

surfaceFieldValue averageTempHeaterFinInterface write:
    areaAverage(heater_to_fins) of T = 321.655

Region: fluid Courant Number mean: 1324.47 max: 96997.1
Region: fins Diffusion Number mean: 122.36 max: 10668.6
Region: heater Diffusion Number mean: 73.8557 max: 560.851
Time = 13s


Solving for solid region fins
GAMG:  Solving for e, Initial residual = 0.318762, Final residual = 0.00799446, No Iterations 1
Min/max T:320.723 324.06

Solving for solid region heater
GAMG:  Solving for e, Initial residual = 0.0648686, Final residual = 2.75873e-05, No Iterations 1
Min/max T:323.243 342.11

Solving for fluid region fluid
DILUPBiCGStab:  Solving for Ux, Initial residual = 0.00203353, Final residual = 9.03201e-05, No Iterations 1
DILUPBiCGStab:  Solving for Uy, Initial residual = 0.00765111, Final residual = 0.00031144, No Iterations 1
DILUPBiCGStab:  Solving for Uz, Initial residual = 0.00516363, Final residual = 0.000222515, No Iterations 1
DILUPBiCGStab:  Solving for h, Initial residual = 0.00332087, Final residual = 0.000206233, No Iterations 1
Min/max T:296.837 323.657
GAMG:  Solving for p_rgh, Initial residual = 0.016437, Final residual = 0.000158446, No Iterations 2
GAMG:  Solving for p_rgh, Initial residual = 0.00278234, Final residual = 1.54222e-05, No Iterations 3
GAMG:  Solving for p_rgh, Initial residual = 0.000547336, Final residual = 3.37704e-06, No Iterations 3
time step continuity errors : sum local = 2.15154e-05, global = 3.21853e-06, cumulative = 3.21853e-06
ExecutionTime = 12.1916 s  ClockTime = 18 s

volFieldValue volAvgFinTemperature write:
    volAverage() of T = 323.215

volFieldValue volAvgHeaterTemperature write:
    volAverage() of T = 336.286

surfaceFieldValue averageTempHeaterFinInterface write:
    areaAverage(heater_to_fins) of T = 323.823

Region: fluid Courant Number mean: 1324.29 max: 95285
Region: fins Diffusion Number mean: 122.36 max: 10668.6
Region: heater Diffusion Number mean: 73.8557 max: 560.851
Time = 14s


Solving for solid region fins
GAMG:  Solving for e, Initial residual = 0.307014, Final residual = 0.00770261, No Iterations 1
Min/max T:322.815 326.212

Solving for solid region heater
GAMG:  Solving for e, Initial residual = 0.064348, Final residual = 2.07071e-05, No Iterations 1
Min/max T:325.399 344.261

Solving for fluid region fluid
DILUPBiCGStab:  Solving for Ux, Initial residual = 0.0019482, Final residual = 8.64593e-05, No Iterations 1
DILUPBiCGStab:  Solving for Uy, Initial residual = 0.00734087, Final residual = 0.000301494, No Iterations 1
DILUPBiCGStab:  Solving for Uz, Initial residual = 0.00488185, Final residual = 0.000209929, No Iterations 1
DILUPBiCGStab:  Solving for h, Initial residual = 0.00307164, Final residual = 0.000189745, No Iterations 1
Min/max T:296.84 325.8
GAMG:  Solving for p_rgh, Initial residual = 0.0153596, Final residual = 5.43913e-05, No Iterations 3
GAMG:  Solving for p_rgh, Initial residual = 0.00276362, Final residual = 2.61313e-05, No Iterations 2
GAMG:  Solving for p_rgh, Initial residual = 0.000430399, Final residual = 2.28846e-06, No Iterations 4
time step continuity errors : sum local = 1.46141e-05, global = 3.2382e-06, cumulative = 3.2382e-06
ExecutionTime = 12.639 s  ClockTime = 18 s

volFieldValue volAvgFinTemperature write:
    volAverage() of T = 325.323

volFieldValue volAvgHeaterTemperature write:
    volAverage() of T = 338.435

surfaceFieldValue averageTempHeaterFinInterface write:
    areaAverage(heater_to_fins) of T = 325.976

Region: fluid Courant Number mean: 1324.11 max: 93765.5
Region: fins Diffusion Number mean: 122.36 max: 10668.6
Region: heater Diffusion Number mean: 73.8557 max: 560.851
Time = 15s


Solving for solid region fins
GAMG:  Solving for e, Initial residual = 0.296041, Final residual = 0.00741721, No Iterations 1
Min/max T:324.894 328.35

Solving for solid region heater
GAMG:  Solving for e, Initial residual = 0.063848, Final residual = 1.67834e-05, No Iterations 1
Min/max T:327.54 346.395

Solving for fluid region fluid
DILUPBiCGStab:  Solving for Ux, Initial residual = 0.00187584, Final residual = 8.30713e-05, No Iterations 1
DILUPBiCGStab:  Solving for Uy, Initial residual = 0.00708434, Final residual = 0.000292454, No Iterations 1
DILUPBiCGStab:  Solving for Uz, Initial residual = 0.00461251, Final residual = 0.000197704, No Iterations 1
DILUPBiCGStab:  Solving for h, Initial residual = 0.00286242, Final residual = 0.000175454, No Iterations 1
Min/max T:296.845 327.929
GAMG:  Solving for p_rgh, Initial residual = 0.0148827, Final residual = 0.000133407, No Iterations 2
GAMG:  Solving for p_rgh, Initial residual = 0.00264815, Final residual = 1.5416e-05, No Iterations 3
GAMG:  Solving for p_rgh, Initial residual = 0.000511628, Final residual = 3.42404e-06, No Iterations 3
time step continuity errors : sum local = 2.19192e-05, global = 3.34285e-06, cumulative = 3.34285e-06
ExecutionTime = 13.0622 s  ClockTime = 19 s

volFieldValue volAvgFinTemperature write:
    volAverage() of T = 327.417

volFieldValue volAvgHeaterTemperature write:
    volAverage() of T = 340.569

surfaceFieldValue averageTempHeaterFinInterface write:
    areaAverage(heater_to_fins) of T = 328.113

Region: fluid Courant Number mean: 1323.95 max: 92421
Region: fins Diffusion Number mean: 122.36 max: 10668.6
Region: heater Diffusion Number mean: 73.8557 max: 560.851
Time = 16s


Solving for solid region fins
GAMG:  Solving for e, Initial residual = 0.285694, Final residual = 0.0071481, No Iterations 1
Min/max T:326.958 330.472

Solving for solid region heater
GAMG:  Solving for e, Initial residual = 0.0633634, Final residual = 1.44941e-05, No Iterations 1
Min/max T:329.666 348.515

Solving for fluid region fluid
DILUPBiCGStab:  Solving for Ux, Initial residual = 0.00181003, Final residual = 8.00006e-05, No Iterations 1
DILUPBiCGStab:  Solving for Uy, Initial residual = 0.00688788, Final residual = 0.000285061, No Iterations 1
DILUPBiCGStab:  Solving for Uz, Initial residual = 0.00438474, Final residual = 0.000187523, No Iterations 1
DILUPBiCGStab:  Solving for h, Initial residual = 0.00269675, Final residual = 0.000165237, No Iterations 1
Min/max T:296.85 330.043
GAMG:  Solving for p_rgh, Initial residual = 0.0141871, Final residual = 5.37273e-05, No Iterations 3
GAMG:  Solving for p_rgh, Initial residual = 0.002534, Final residual = 1.15165e-05, No Iterations 3
GAMG:  Solving for p_rgh, Initial residual = 0.000414931, Final residual = 3.11443e-06, No Iterations 3
time step continuity errors : sum local = 1.99769e-05, global = 3.91834e-06, cumulative = 3.91834e-06
ExecutionTime = 13.4579 s  ClockTime = 19 s

volFieldValue volAvgFinTemperature write:
    volAverage() of T = 329.497

volFieldValue volAvgHeaterTemperature write:
    volAverage() of T = 342.688

surfaceFieldValue averageTempHeaterFinInterface write:
    areaAverage(heater_to_fins) of T = 330.237

Region: fluid Courant Number mean: 1323.79 max: 91231.4
Region: fins Diffusion Number mean: 122.36 max: 10668.6
Region: heater Diffusion Number mean: 73.8557 max: 560.851
Time = 17s


Solving for solid region fins
GAMG:  Solving for e, Initial residual = 0.275914, Final residual = 0.00688686, No Iterations 1
Min/max T:329.009 332.58

Solving for solid region heater
GAMG:  Solving for e, Initial residual = 0.0628865, Final residual = 1.31191e-05, No Iterations 1
Min/max T:331.778 350.619

Solving for fluid region fluid
DILUPBiCGStab:  Solving for Ux, Initial residual = 0.00175023, Final residual = 7.72135e-05, No Iterations 1
DILUPBiCGStab:  Solving for Uy, Initial residual = 0.00670614, Final residual = 0.000277972, No Iterations 1
DILUPBiCGStab:  Solving for Uz, Initial residual = 0.0041712, Final residual = 0.000178455, No Iterations 1
DILUPBiCGStab:  Solving for h, Initial residual = 0.00254611, Final residual = 0.000156536, No Iterations 1
Min/max T:296.83 332.143
GAMG:  Solving for p_rgh, Initial residual = 0.0133057, Final residual = 5.26913e-05, No Iterations 3
GAMG:  Solving for p_rgh, Initial residual = 0.00241192, Final residual = 2.38893e-05, No Iterations 2
GAMG:  Solving for p_rgh, Initial residual = 0.000375788, Final residual = 2.18577e-06, No Iterations 4
time step continuity errors : sum local = 1.40544e-05, global = 4.38139e-06, cumulative = 4.38139e-06
ExecutionTime = 13.8497 s  ClockTime = 20 s

volFieldValue volAvgFinTemperature write:
    volAverage() of T = 331.562

volFieldValue volAvgHeaterTemperature write:
    volAverage() of T = 344.793

surfaceFieldValue averageTempHeaterFinInterface write:
    areaAverage(heater_to_fins) of T = 332.345

Region: fluid Courant Number mean: 1323.62 max: 90177.8
Region: fins Diffusion Number mean: 122.36 max: 10668.6
Region: heater Diffusion Number mean: 73.8557 max: 560.851
Time = 18s


Solving for solid region fins
GAMG:  Solving for e, Initial residual = 0.266756, Final residual = 0.00663496, No Iterations 1
Min/max T:331.046 334.674

Solving for solid region heater
GAMG:  Solving for e, Initial residual = 0.0624192, Final residual = 1.22311e-05, No Iterations 1
Min/max T:333.875 352.709

Solving for fluid region fluid
DILUPBiCGStab:  Solving for Ux, Initial residual = 0.00169564, Final residual = 7.46537e-05, No Iterations 1
DILUPBiCGStab:  Solving for Uy, Initial residual = 0.00652976, Final residual = 0.00027146, No Iterations 1
DILUPBiCGStab:  Solving for Uz, Initial residual = 0.00397709, Final residual = 0.000170402, No Iterations 1
DILUPBiCGStab:  Solving for h, Initial residual = 0.00241348, Final residual = 0.000147755, No Iterations 1
Min/max T:296.804 334.228
GAMG:  Solving for p_rgh, Initial residual = 0.0125909, Final residual = 5.30149e-05, No Iterations 3
GAMG:  Solving for p_rgh, Initial residual = 0.00217462, Final residual = 1.07098e-05, No Iterations 3
GAMG:  Solving for p_rgh, Initial residual = 0.000368753, Final residual = 2.77016e-06, No Iterations 3
time step continuity errors : sum local = 1.78422e-05, global = 2.05837e-06, cumulative = 2.05837e-06
ExecutionTime = 14.228 s  ClockTime = 20 s

volFieldValue volAvgFinTemperature write:
    volAverage() of T = 333.614

volFieldValue volAvgHeaterTemperature write:
    volAverage() of T = 346.882

surfaceFieldValue averageTempHeaterFinInterface write:
    areaAverage(heater_to_fins) of T = 334.439

Region: fluid Courant Number mean: 1323.46 max: 89242.4
Region: fins Diffusion Number mean: 122.36 max: 10668.6
Region: heater Diffusion Number mean: 73.8557 max: 560.851
Time = 19s


Solving for solid region fins
GAMG:  Solving for e, Initial residual = 0.258135, Final residual = 0.00639964, No Iterations 1
Min/max T:333.07 336.753

Solving for solid region heater
GAMG:  Solving for e, Initial residual = 0.0619591, Final residual = 1.16487e-05, No Iterations 1
Min/max T:335.957 354.785

Solving for fluid region fluid
DILUPBiCGStab:  Solving for Ux, Initial residual = 0.00164554, Final residual = 7.24146e-05, No Iterations 1
DILUPBiCGStab:  Solving for Uy, Initial residual = 0.00639807, Final residual = 0.000266255, No Iterations 1
DILUPBiCGStab:  Solving for Uz, Initial residual = 0.00380657, Final residual = 0.00016345, No Iterations 1
DILUPBiCGStab:  Solving for h, Initial residual = 0.00230321, Final residual = 0.000139588, No Iterations 1
Min/max T:296.781 336.299
GAMG:  Solving for p_rgh, Initial residual = 0.0126047, Final residual = 5.65613e-05, No Iterations 3
GAMG:  Solving for p_rgh, Initial residual = 0.00206263, Final residual = 1.17566e-05, No Iterations 3
GAMG:  Solving for p_rgh, Initial residual = 0.000367951, Final residual = 2.89433e-06, No Iterations 3
time step continuity errors : sum local = 1.86738e-05, global = 3.45897e-06, cumulative = 3.45897e-06
ExecutionTime = 14.5988 s  ClockTime = 20 s

volFieldValue volAvgFinTemperature write:
    volAverage() of T = 335.652

volFieldValue volAvgHeaterTemperature write:
    volAverage() of T = 348.958

surfaceFieldValue averageTempHeaterFinInterface write:
    areaAverage(heater_to_fins) of T = 336.518

Region: fluid Courant Number mean: 1323.3 max: 88409.8
Region: fins Diffusion Number mean: 122.36 max: 10668.6
Region: heater Diffusion Number mean: 73.8557 max: 560.851
Time = 20s


Solving for solid region fins
GAMG:  Solving for e, Initial residual = 0.24999, Final residual = 0.00617689, No Iterations 1
Min/max T:335.08 338.818

Solving for solid region heater
GAMG:  Solving for e, Initial residual = 0.0615063, Final residual = 1.12519e-05, No Iterations 1
Min/max T:338.026 356.846

Solving for fluid region fluid
DILUPBiCGStab:  Solving for Ux, Initial residual = 0.00160134, Final residual = 7.0465e-05, No Iterations 1
DILUPBiCGStab:  Solving for Uy, Initial residual = 0.00628424, Final residual = 0.000261844, No Iterations 1
DILUPBiCGStab:  Solving for Uz, Initial residual = 0.00364371, Final residual = 0.000156579, No Iterations 1
DILUPBiCGStab:  Solving for h, Initial residual = 0.00220366, Final residual = 0.000132437, No Iterations 1
Min/max T:296.762 338.356
GAMG:  Solving for p_rgh, Initial residual = 0.0114947, Final residual = 5.05207e-05, No Iterations 3
GAMG:  Solving for p_rgh, Initial residual = 0.00184709, Final residual = 9.47448e-06, No Iterations 3
GAMG:  Solving for p_rgh, Initial residual = 0.00030951, Final residual = 2.48314e-06, No Iterations 3
time step continuity errors : sum local = 1.60466e-05, global = 2.6738e-06, cumulative = 2.6738e-06
ExecutionTime = 14.9649 s  ClockTime = 21 s

volFieldValue volAvgFinTemperature write:
    volAverage() of T = 337.676

volFieldValue volAvgHeaterTemperature write:
    volAverage() of T = 351.019

surfaceFieldValue averageTempHeaterFinInterface write:
    areaAverage(heater_to_fins) of T = 338.584

Region: fluid Courant Number mean: 1323.15 max: 87666.3
Region: fins Diffusion Number mean: 122.36 max: 10668.6
Region: heater Diffusion Number mean: 73.8557 max: 560.851
Time = 21s


Solving for solid region fins
GAMG:  Solving for e, Initial residual = 0.242293, Final residual = 0.00597422, No Iterations 1
Min/max T:337.076 340.869

Solving for solid region heater
GAMG:  Solving for e, Initial residual = 0.0610571, Final residual = 1.09817e-05, No Iterations 1
Min/max T:340.08 358.894

Solving for fluid region fluid
DILUPBiCGStab:  Solving for Ux, Initial residual = 0.00155718, Final residual = 6.84496e-05, No Iterations 1
DILUPBiCGStab:  Solving for Uy, Initial residual = 0.00616017, Final residual = 0.000256721, No Iterations 1
DILUPBiCGStab:  Solving for Uz, Initial residual = 0.0034948, Final residual = 0.000150117, No Iterations 1
DILUPBiCGStab:  Solving for h, Initial residual = 0.00211527, Final residual = 0.000128452, No Iterations 1
Min/max T:296.744 340.399
GAMG:  Solving for p_rgh, Initial residual = 0.0111769, Final residual = 4.48848e-05, No Iterations 3
GAMG:  Solving for p_rgh, Initial residual = 0.00178575, Final residual = 9.04682e-06, No Iterations 3
GAMG:  Solving for p_rgh, Initial residual = 0.000302204, Final residual = 2.16992e-06, No Iterations 3
time step continuity errors : sum local = 1.40474e-05, global = 2.15959e-06, cumulative = 2.15959e-06
ExecutionTime = 15.3835 s  ClockTime = 21 s

volFieldValue volAvgFinTemperature write:
    volAverage() of T = 339.686

volFieldValue volAvgHeaterTemperature write:
    volAverage() of T = 353.066

surfaceFieldValue averageTempHeaterFinInterface write:
    areaAverage(heater_to_fins) of T = 340.635

Region: fluid Courant Number mean: 1322.99 max: 87000.2
Region: fins Diffusion Number mean: 122.36 max: 10668.6
Region: heater Diffusion Number mean: 73.8557 max: 560.851
Time = 22s


Solving for solid region fins
GAMG:  Solving for e, Initial residual = 0.235041, Final residual = 0.00578369, No Iterations 1
Min/max T:339.058 342.906

Solving for solid region heater
GAMG:  Solving for e, Initial residual = 0.0606128, Final residual = 1.07695e-05, No Iterations 1
Min/max T:342.12 360.927

Solving for fluid region fluid
DILUPBiCGStab:  Solving for Ux, Initial residual = 0.00151663, Final residual = 6.66071e-05, No Iterations 1
DILUPBiCGStab:  Solving for Uy, Initial residual = 0.00603152, Final residual = 0.000251646, No Iterations 1
DILUPBiCGStab:  Solving for Uz, Initial residual = 0.00335666, Final residual = 0.000144129, No Iterations 1
DILUPBiCGStab:  Solving for h, Initial residual = 0.00203734, Final residual = 0.000122803, No Iterations 1
Min/max T:296.727 342.429
GAMG:  Solving for p_rgh, Initial residual = 0.0108737, Final residual = 4.33483e-05, No Iterations 3
GAMG:  Solving for p_rgh, Initial residual = 0.00180451, Final residual = 8.86011e-06, No Iterations 3
GAMG:  Solving for p_rgh, Initial residual = 0.000297981, Final residual = 2.04881e-06, No Iterations 3
time step continuity errors : sum local = 1.32904e-05, global = 2.4627e-06, cumulative = 2.4627e-06
ExecutionTime = 15.7681 s  ClockTime = 22 s

volFieldValue volAvgFinTemperature write:
    volAverage() of T = 341.683

volFieldValue volAvgHeaterTemperature write:
    volAverage() of T = 355.099

surfaceFieldValue averageTempHeaterFinInterface write:
    areaAverage(heater_to_fins) of T = 342.673

Region: fluid Courant Number mean: 1322.84 max: 86401.9
Region: fins Diffusion Number mean: 122.36 max: 10668.6
Region: heater Diffusion Number mean: 73.8557 max: 560.851
Time = 23s


Solving for solid region fins
GAMG:  Solving for e, Initial residual = 0.228155, Final residual = 0.00560952, No Iterations 1
Min/max T:341.028 344.929

Solving for solid region heater
GAMG:  Solving for e, Initial residual = 0.0601711, Final residual = 1.06153e-05, No Iterations 1
Min/max T:344.147 362.947

Solving for fluid region fluid
DILUPBiCGStab:  Solving for Ux, Initial residual = 0.00147876, Final residual = 6.48603e-05, No Iterations 1
DILUPBiCGStab:  Solving for Uy, Initial residual = 0.00588801, Final residual = 0.000246925, No Iterations 1
DILUPBiCGStab:  Solving for Uz, Initial residual = 0.00323124, Final residual = 0.000138786, No Iterations 1
DILUPBiCGStab:  Solving for h, Initial residual = 0.00195673, Final residual = 0.000121126, No Iterations 1
Min/max T:296.712 344.444
GAMG:  Solving for p_rgh, Initial residual = 0.0102836, Final residual = 4.13365e-05, No Iterations 3
GAMG:  Solving for p_rgh, Initial residual = 0.00166541, Final residual = 8.22619e-06, No Iterations 3
GAMG:  Solving for p_rgh, Initial residual = 0.000280285, Final residual = 1.85994e-06, No Iterations 3
time step continuity errors : sum local = 1.20902e-05, global = 1.82514e-06, cumulative = 1.82514e-06
ExecutionTime = 16.1467 s  ClockTime = 22 s

volFieldValue volAvgFinTemperature write:
    volAverage() of T = 343.666

volFieldValue volAvgHeaterTemperature write:
    volAverage() of T = 357.119

surfaceFieldValue averageTempHeaterFinInterface write:
    areaAverage(heater_to_fins) of T = 344.697

Region: fluid Courant Number mean: 1322.69 max: 85863.1
Region: fins Diffusion Number mean: 122.36 max: 10668.6
Region: heater Diffusion Number mean: 73.8557 max: 560.851
Time = 24s


Solving for solid region fins
GAMG:  Solving for e, Initial residual = 0.221614, Final residual = 0.00543459, No Iterations 1
Min/max T:342.983 346.939

Solving for solid region heater
GAMG:  Solving for e, Initial residual = 0.0597365, Final residual = 1.04476e-05, No Iterations 1
Min/max T:346.16 364.953

Solving for fluid region fluid
DILUPBiCGStab:  Solving for Ux, Initial residual = 0.00144365, Final residual = 6.3184e-05, No Iterations 1
DILUPBiCGStab:  Solving for Uy, Initial residual = 0.00576543, Final residual = 0.000242992, No Iterations 1
DILUPBiCGStab:  Solving for Uz, Initial residual = 0.00311504, Final residual = 0.000133614, No Iterations 1
DILUPBiCGStab:  Solving for h, Initial residual = 0.0018806, Final residual = 0.000120088, No Iterations 1
Min/max T:296.696 346.446
GAMG:  Solving for p_rgh, Initial residual = 0.00993903, Final residual = 3.90088e-05, No Iterations 3
GAMG:  Solving for p_rgh, Initial residual = 0.00162199, Final residual = 7.82227e-06, No Iterations 3
GAMG:  Solving for p_rgh, Initial residual = 0.000273322, Final residual = 1.80047e-06, No Iterations 3
time step continuity errors : sum local = 1.17206e-05, global = 1.63328e-06, cumulative = 1.63328e-06
ExecutionTime = 16.515 s  ClockTime = 23 s

volFieldValue volAvgFinTemperature write:
    volAverage() of T = 345.637

volFieldValue volAvgHeaterTemperature write:
    volAverage() of T = 359.125

surfaceFieldValue averageTempHeaterFinInterface write:
    areaAverage(heater_to_fins) of T = 346.707

Region: fluid Courant Number mean: 1322.55 max: 85377
Region: fins Diffusion Number mean: 122.36 max: 10668.6
Region: heater Diffusion Number mean: 73.8557 max: 560.851
Time = 25s


Solving for solid region fins
GAMG:  Solving for e, Initial residual = 0.215379, Final residual = 0.00526636, No Iterations 1
Min/max T:344.926 348.938

Solving for solid region heater
GAMG:  Solving for e, Initial residual = 0.059307, Final residual = 1.03127e-05, No Iterations 1
Min/max T:348.159 366.945

Solving for fluid region fluid
DILUPBiCGStab:  Solving for Ux, Initial residual = 0.00141128, Final residual = 6.15705e-05, No Iterations 1
DILUPBiCGStab:  Solving for Uy, Initial residual = 0.00564122, Final residual = 0.000238521, No Iterations 1
DILUPBiCGStab:  Solving for Uz, Initial residual = 0.00300726, Final residual = 0.000128644, No Iterations 1
DILUPBiCGStab:  Solving for h, Initial residual = 0.00181315, Final residual = 0.000116345, No Iterations 1
Min/max T:296.682 348.434
GAMG:  Solving for p_rgh, Initial residual = 0.00968786, Final residual = 4.07214e-05, No Iterations 3
GAMG:  Solving for p_rgh, Initial residual = 0.00161426, Final residual = 8.58284e-06, No Iterations 3
GAMG:  Solving for p_rgh, Initial residual = 0.000271107, Final residual = 1.98364e-06, No Iterations 3
time step continuity errors : sum local = 1.29251e-05, global = 1.38074e-06, cumulative = 1.38074e-06
ExecutionTime = 16.87 s  ClockTime = 23 s

volFieldValue volAvgFinTemperature write:
    volAverage() of T = 347.594

volFieldValue volAvgHeaterTemperature write:
    volAverage() of T = 361.117

surfaceFieldValue averageTempHeaterFinInterface write:
    areaAverage(heater_to_fins) of T = 348.703

Region: fluid Courant Number mean: 1322.4 max: 84937.8
Region: fins Diffusion Number mean: 122.36 max: 10668.6
Region: heater Diffusion Number mean: 73.8557 max: 560.851
Time = 26s


Solving for solid region fins
GAMG:  Solving for e, Initial residual = 0.209441, Final residual = 0.0051076, No Iterations 1
Min/max T:346.856 350.923

Solving for solid region heater
GAMG:  Solving for e, Initial residual = 0.0588807, Final residual = 1.02205e-05, No Iterations 1
Min/max T:350.141 368.924

Solving for fluid region fluid
DILUPBiCGStab:  Solving for Ux, Initial residual = 0.00138081, Final residual = 6.01075e-05, No Iterations 1
DILUPBiCGStab:  Solving for Uy, Initial residual = 0.00552793, Final residual = 0.000233692, No Iterations 1
DILUPBiCGStab:  Solving for Uz, Initial residual = 0.00290595, Final residual = 0.000124042, No Iterations 1
DILUPBiCGStab:  Solving for h, Initial residual = 0.00175618, Final residual = 0.000111652, No Iterations 1
Min/max T:296.668 350.409
GAMG:  Solving for p_rgh, Initial residual = 0.00961346, Final residual = 4.20754e-05, No Iterations 3
GAMG:  Solving for p_rgh, Initial residual = 0.00160459, Final residual = 8.89417e-06, No Iterations 3
GAMG:  Solving for p_rgh, Initial residual = 0.000264933, Final residual = 2.03544e-06, No Iterations 3
time step continuity errors : sum local = 1.3277e-05, global = 9.01304e-07, cumulative = 9.01304e-07
ExecutionTime = 17.263 s  ClockTime = 23 s

volFieldValue volAvgFinTemperature write:
    volAverage() of T = 349.538

volFieldValue volAvgHeaterTemperature write:
    volAverage() of T = 363.096

surfaceFieldValue averageTempHeaterFinInterface write:
    areaAverage(heater_to_fins) of T = 350.687

Region: fluid Courant Number mean: 1322.26 max: 84540.8
Region: fins Diffusion Number mean: 122.36 max: 10668.6
Region: heater Diffusion Number mean: 73.8557 max: 560.851
Time = 27s


Solving for solid region fins
GAMG:  Solving for e, Initial residual = 0.203806, Final residual = 0.00495926, No Iterations 1
Min/max T:348.772 352.895

Solving for solid region heater
GAMG:  Solving for e, Initial residual = 0.0584594, Final residual = 1.01102e-05, No Iterations 1
Min/max T:352.108 370.89

Solving for fluid region fluid
DILUPBiCGStab:  Solving for Ux, Initial residual = 0.0013521, Final residual = 5.87683e-05, No Iterations 1
DILUPBiCGStab:  Solving for Uy, Initial residual = 0.00542005, Final residual = 0.000229026, No Iterations 1
DILUPBiCGStab:  Solving for Uz, Initial residual = 0.00281072, Final residual = 0.000119889, No Iterations 1
DILUPBiCGStab:  Solving for h, Initial residual = 0.00170046, Final residual = 0.000108048, No Iterations 1
Min/max T:296.654 352.371
GAMG:  Solving for p_rgh, Initial residual = 0.00950904, Final residual = 4.34406e-05, No Iterations 3
GAMG:  Solving for p_rgh, Initial residual = 0.00162484, Final residual = 8.96489e-06, No Iterations 3
GAMG:  Solving for p_rgh, Initial residual = 0.000269023, Final residual = 2.01795e-06, No Iterations 3
time step continuity errors : sum local = 1.31778e-05, global = 8.49828e-07, cumulative = 8.49828e-07
ExecutionTime = 17.6492 s  ClockTime = 24 s

volFieldValue volAvgFinTemperature write:
    volAverage() of T = 351.469

volFieldValue volAvgHeaterTemperature write:
    volAverage() of T = 365.062

surfaceFieldValue averageTempHeaterFinInterface write:
    areaAverage(heater_to_fins) of T = 352.657

Region: fluid Courant Number mean: 1322.11 max: 84181.5
Region: fins Diffusion Number mean: 122.36 max: 10668.6
Region: heater Diffusion Number mean: 73.8557 max: 560.851
Time = 28s


Solving for solid region fins
GAMG:  Solving for e, Initial residual = 0.198409, Final residual = 0.00481572, No Iterations 1
Min/max T:350.677 354.854

Solving for solid region heater
GAMG:  Solving for e, Initial residual = 0.0580412, Final residual = 1.00108e-05, No Iterations 1
Min/max T:354.061 372.843

Solving for fluid region fluid
DILUPBiCGStab:  Solving for Ux, Initial residual = 0.00132566, Final residual = 5.75917e-05, No Iterations 1
DILUPBiCGStab:  Solving for Uy, Initial residual = 0.00532014, Final residual = 0.000224782, No Iterations 1
DILUPBiCGStab:  Solving for Uz, Initial residual = 0.00272007, Final residual = 0.000116124, No Iterations 1
DILUPBiCGStab:  Solving for h, Initial residual = 0.00164752, Final residual = 0.000104623, No Iterations 1
Min/max T:296.641 354.32
GAMG:  Solving for p_rgh, Initial residual = 0.00955007, Final residual = 4.36666e-05, No Iterations 3
GAMG:  Solving for p_rgh, Initial residual = 0.00161764, Final residual = 8.99127e-06, No Iterations 3
GAMG:  Solving for p_rgh, Initial residual = 0.000266214, Final residual = 2.02424e-06, No Iterations 3
time step continuity errors : sum local = 1.3231e-05, global = 8.06648e-07, cumulative = 8.06648e-07
ExecutionTime = 18.0007 s  ClockTime = 24 s

volFieldValue volAvgFinTemperature write:
    volAverage() of T = 353.387

volFieldValue volAvgHeaterTemperature write:
    volAverage() of T = 367.015

surfaceFieldValue averageTempHeaterFinInterface write:
    areaAverage(heater_to_fins) of T = 354.613

Region: fluid Courant Number mean: 1321.98 max: 83856.3
Region: fins Diffusion Number mean: 122.36 max: 10668.6
Region: heater Diffusion Number mean: 73.8557 max: 560.851
Time = 29s


Solving for solid region fins
GAMG:  Solving for e, Initial residual = 0.193232, Final residual = 0.00471701, No Iterations 1
Min/max T:352.568 356.799

Solving for solid region heater
GAMG:  Solving for e, Initial residual = 0.0576095, Final residual = 1.00697e-05, No Iterations 1
Min/max T:356.002 374.783

Solving for fluid region fluid
DILUPBiCGStab:  Solving for Ux, Initial residual = 0.00130031, Final residual = 5.64706e-05, No Iterations 1
DILUPBiCGStab:  Solving for Uy, Initial residual = 0.00521143, Final residual = 0.000220113, No Iterations 1
DILUPBiCGStab:  Solving for Uz, Initial residual = 0.00263399, Final residual = 0.000112595, No Iterations 1
DILUPBiCGStab:  Solving for h, Initial residual = 0.00160066, Final residual = 0.000101313, No Iterations 1
Min/max T:296.628 356.255
GAMG:  Solving for p_rgh, Initial residual = 0.00947271, Final residual = 4.33786e-05, No Iterations 3
GAMG:  Solving for p_rgh, Initial residual = 0.00159441, Final residual = 8.84474e-06, No Iterations 3
GAMG:  Solving for p_rgh, Initial residual = 0.000263659, Final residual = 1.97143e-06, No Iterations 3
time step continuity errors : sum local = 1.28967e-05, global = 1.1276e-06, cumulative = 1.1276e-06
ExecutionTime = 18.3547 s  ClockTime = 25 s

volFieldValue volAvgFinTemperature write:
    volAverage() of T = 355.292

volFieldValue volAvgHeaterTemperature write:
    volAverage() of T = 368.954

surfaceFieldValue averageTempHeaterFinInterface write:
    areaAverage(heater_to_fins) of T = 356.557

Region: fluid Courant Number mean: 1321.84 max: 83561.7
Region: fins Diffusion Number mean: 122.36 max: 10668.6
Region: heater Diffusion Number mean: 73.8557 max: 560.851
Time = 30s


Solving for solid region fins
GAMG:  Solving for e, Initial residual = 0.188293, Final residual = 0.00464424, No Iterations 1
Min/max T:354.445 358.73

Solving for solid region heater
GAMG:  Solving for e, Initial residual = 0.0571675, Final residual = 1.01928e-05, No Iterations 1
Min/max T:357.928 376.708

Solving for fluid region fluid
DILUPBiCGStab:  Solving for Ux, Initial residual = 0.0012761, Final residual = 5.5354e-05, No Iterations 1
DILUPBiCGStab:  Solving for Uy, Initial residual = 0.0050992, Final residual = 0.000215054, No Iterations 1
DILUPBiCGStab:  Solving for Uz, Initial residual = 0.00255103, Final residual = 0.000109019, No Iterations 1
DILUPBiCGStab:  Solving for h, Initial residual = 0.00155605, Final residual = 9.70936e-05, No Iterations 1
Min/max T:296.616 358.176
GAMG:  Solving for p_rgh, Initial residual = 0.00901995, Final residual = 4.15528e-05, No Iterations 3
GAMG:  Solving for p_rgh, Initial residual = 0.00157724, Final residual = 8.81277e-06, No Iterations 3
GAMG:  Solving for p_rgh, Initial residual = 0.000261614, Final residual = 2.12606e-06, No Iterations 3
time step continuity errors : sum local = 1.39244e-05, global = 1.96193e-06, cumulative = 1.96193e-06
ExecutionTime = 18.72 s  ClockTime = 25 s

volFieldValue volAvgFinTemperature write:
    volAverage() of T = 357.182

volFieldValue volAvgHeaterTemperature write:
    volAverage() of T = 370.879

surfaceFieldValue averageTempHeaterFinInterface write:
    areaAverage(heater_to_fins) of T = 358.486

Region: fluid Courant Number mean: 1321.71 max: 83294.3
Region: fins Diffusion Number mean: 122.36 max: 10668.6
Region: heater Diffusion Number mean: 73.8557 max: 560.851
Time = 31s


Solving for solid region fins
GAMG:  Solving for e, Initial residual = 0.183478, Final residual = 0.00458691, No Iterations 1
Min/max T:356.306 360.647

Solving for solid region heater
GAMG:  Solving for e, Initial residual = 0.0567148, Final residual = 1.03475e-05, No Iterations 1
Min/max T:359.84 378.619

Solving for fluid region fluid
DILUPBiCGStab:  Solving for Ux, Initial residual = 0.00125302, Final residual = 5.42629e-05, No Iterations 1
DILUPBiCGStab:  Solving for Uy, Initial residual = 0.00498286, Final residual = 0.00020972, No Iterations 1
DILUPBiCGStab:  Solving for Uz, Initial residual = 0.00246693, Final residual = 0.00010526, No Iterations 1
DILUPBiCGStab:  Solving for h, Initial residual = 0.0015152, Final residual = 9.24567e-05, No Iterations 1
Min/max T:296.603 360.083
GAMG:  Solving for p_rgh, Initial residual = 0.00894939, Final residual = 4.03862e-05, No Iterations 3
GAMG:  Solving for p_rgh, Initial residual = 0.00155973, Final residual = 8.22208e-06, No Iterations 3
GAMG:  Solving for p_rgh, Initial residual = 0.000247521, Final residual = 1.9138e-06, No Iterations 3
time step continuity errors : sum local = 1.25505e-05, global = 6.2558e-07, cumulative = 6.2558e-07
ExecutionTime = 19.1336 s  ClockTime = 26 s

volFieldValue volAvgFinTemperature write:
    volAverage() of T = 359.057

volFieldValue volAvgHeaterTemperature write:
    volAverage() of T = 372.79

surfaceFieldValue averageTempHeaterFinInterface write:
    areaAverage(heater_to_fins) of T = 360.402

Region: fluid Courant Number mean: 1321.59 max: 83051
Region: fins Diffusion Number mean: 122.36 max: 10668.6
Region: heater Diffusion Number mean: 73.8557 max: 560.851
Time = 32s


Solving for solid region fins
GAMG:  Solving for e, Initial residual = 0.178805, Final residual = 0.00452081, No Iterations 1
Min/max T:358.151 362.55

Solving for solid region heater
GAMG:  Solving for e, Initial residual = 0.056258, Final residual = 1.0471e-05, No Iterations 1
Min/max T:361.737 380.516

Solving for fluid region fluid
DILUPBiCGStab:  Solving for Ux, Initial residual = 0.00123097, Final residual = 5.32131e-05, No Iterations 1
DILUPBiCGStab:  Solving for Uy, Initial residual = 0.00487699, Final residual = 0.000205088, No Iterations 1
DILUPBiCGStab:  Solving for Uz, Initial residual = 0.0023923, Final residual = 0.000101811, No Iterations 1
DILUPBiCGStab:  Solving for h, Initial residual = 0.00147955, Final residual = 8.82973e-05, No Iterations 1
Min/max T:296.591 361.975
GAMG:  Solving for p_rgh, Initial residual = 0.0088386, Final residual = 3.78356e-05, No Iterations 3
GAMG:  Solving for p_rgh, Initial residual = 0.00154626, Final residual = 7.95193e-06, No Iterations 3
GAMG:  Solving for p_rgh, Initial residual = 0.000245243, Final residual = 1.97493e-06, No Iterations 3
time step continuity errors : sum local = 1.29699e-05, global = 1.24815e-06, cumulative = 1.24815e-06
ExecutionTime = 19.5082 s  ClockTime = 26 s

volFieldValue volAvgFinTemperature write:
    volAverage() of T = 360.917

volFieldValue volAvgHeaterTemperature write:
    volAverage() of T = 374.686

surfaceFieldValue averageTempHeaterFinInterface write:
    areaAverage(heater_to_fins) of T = 362.303

Region: fluid Courant Number mean: 1321.47 max: 82828.5
Region: fins Diffusion Number mean: 122.36 max: 10668.6
Region: heater Diffusion Number mean: 73.8557 max: 560.851
Time = 33s


Solving for solid region fins
GAMG:  Solving for e, Initial residual = 0.174224, Final residual = 0.00446349, No Iterations 1
Min/max T:359.976 364.438

Solving for solid region heater
GAMG:  Solving for e, Initial residual = 0.0557959, Final residual = 1.06338e-05, No Iterations 1
Min/max T:363.619 382.398

Solving for fluid region fluid
DILUPBiCGStab:  Solving for Ux, Initial residual = 0.00120948, Final residual = 5.21796e-05, No Iterations 1
DILUPBiCGStab:  Solving for Uy, Initial residual = 0.0047527, Final residual = 0.000199857, No Iterations 1
DILUPBiCGStab:  Solving for Uz, Initial residual = 0.00231745, Final residual = 9.83816e-05, No Iterations 1
DILUPBiCGStab:  Solving for h, Initial residual = 0.00144775, Final residual = 8.44046e-05, No Iterations 1
Min/max T:296.571 363.852
GAMG:  Solving for p_rgh, Initial residual = 0.00865918, Final residual = 3.76676e-05, No Iterations 3
GAMG:  Solving for p_rgh, Initial residual = 0.00150086, Final residual = 1.46447e-05, No Iterations 2
GAMG:  Solving for p_rgh, Initial residual = 0.000227128, Final residual = 1.15701e-06, No Iterations 4
time step continuity errors : sum local = 7.60973e-06, global = 9.37162e-07, cumulative = 9.37162e-07
ExecutionTime = 19.8692 s  ClockTime = 26 s

volFieldValue volAvgFinTemperature write:
    volAverage() of T = 362.762

volFieldValue volAvgHeaterTemperature write:
    volAverage() of T = 376.568

surfaceFieldValue averageTempHeaterFinInterface write:
    areaAverage(heater_to_fins) of T = 364.189

Region: fluid Courant Number mean: 1321.36 max: 82624.1
Region: fins Diffusion Number mean: 122.36 max: 10668.6
Region: heater Diffusion Number mean: 73.8557 max: 560.851
Time = 34s


Solving for solid region fins
GAMG:  Solving for e, Initial residual = 0.169672, Final residual = 0.00441343, No Iterations 1
Min/max T:361.784 366.312

Solving for solid region heater
GAMG:  Solving for e, Initial residual = 0.055325, Final residual = 1.08929e-05, No Iterations 1
Min/max T:365.486 384.265

Solving for fluid region fluid
DILUPBiCGStab:  Solving for Ux, Initial residual = 0.00118872, Final residual = 5.11834e-05, No Iterations 1
DILUPBiCGStab:  Solving for Uy, Initial residual = 0.00463754, Final residual = 0.000195266, No Iterations 1
DILUPBiCGStab:  Solving for Uz, Initial residual = 0.00224592, Final residual = 9.51307e-05, No Iterations 1
DILUPBiCGStab:  Solving for h, Initial residual = 0.00141748, Final residual = 8.06097e-05, No Iterations 1
Min/max T:296.536 365.714
GAMG:  Solving for p_rgh, Initial residual = 0.00859581, Final residual = 3.70948e-05, No Iterations 3
GAMG:  Solving for p_rgh, Initial residual = 0.00148606, Final residual = 1.47946e-05, No Iterations 2
GAMG:  Solving for p_rgh, Initial residual = 0.000226369, Final residual = 1.13863e-06, No Iterations 4
time step continuity errors : sum local = 7.50179e-06, global = 6.05348e-07, cumulative = 6.05348e-07
ExecutionTime = 20.2114 s  ClockTime = 27 s

volFieldValue volAvgFinTemperature write:
    volAverage() of T = 364.592

volFieldValue volAvgHeaterTemperature write:
    volAverage() of T = 378.435

surfaceFieldValue averageTempHeaterFinInterface write:
    areaAverage(heater_to_fins) of T = 366.061

Region: fluid Courant Number mean: 1321.25 max: 82434.6
Region: fins Diffusion Number mean: 122.36 max: 10668.6
Region: heater Diffusion Number mean: 73.8557 max: 560.851
Time = 35s


Solving for solid region fins
GAMG:  Solving for e, Initial residual = 0.16525, Final residual = 0.00434336, No Iterations 1
Min/max T:363.575 368.17

Solving for solid region heater
GAMG:  Solving for e, Initial residual = 0.0548528, Final residual = 1.11146e-05, No Iterations 1
Min/max T:367.338 386.117

Solving for fluid region fluid
DILUPBiCGStab:  Solving for Ux, Initial residual = 0.00116865, Final residual = 5.02357e-05, No Iterations 1
DILUPBiCGStab:  Solving for Uy, Initial residual = 0.00453032, Final residual = 0.00019089, No Iterations 1
DILUPBiCGStab:  Solving for Uz, Initial residual = 0.00217734, Final residual = 9.19587e-05, No Iterations 1
DILUPBiCGStab:  Solving for h, Initial residual = 0.001389, Final residual = 7.86236e-05, No Iterations 1
Min/max T:296.518 367.562
GAMG:  Solving for p_rgh, Initial residual = 0.00841356, Final residual = 3.59876e-05, No Iterations 3
GAMG:  Solving for p_rgh, Initial residual = 0.00151203, Final residual = 6.84823e-06, No Iterations 3
GAMG:  Solving for p_rgh, Initial residual = 0.000242117, Final residual = 1.71254e-06, No Iterations 3
time step continuity errors : sum local = 1.1308e-05, global = 1.20874e-06, cumulative = 1.20874e-06
ExecutionTime = 20.6489 s  ClockTime = 27 s

volFieldValue volAvgFinTemperature write:
    volAverage() of T = 366.406

volFieldValue volAvgHeaterTemperature write:
    volAverage() of T = 380.287

surfaceFieldValue averageTempHeaterFinInterface write:
    areaAverage(heater_to_fins) of T = 367.917

Region: fluid Courant Number mean: 1321.14 max: 82257
Region: fins Diffusion Number mean: 122.36 max: 10668.6
Region: heater Diffusion Number mean: 73.8557 max: 560.851
Time = 36s


Solving for solid region fins
GAMG:  Solving for e, Initial residual = 0.160921, Final residual = 0.00426799, No Iterations 1
Min/max T:365.35 370.014

Solving for solid region heater
GAMG:  Solving for e, Initial residual = 0.0543822, Final residual = 1.12947e-05, No Iterations 1
Min/max T:369.174 387.954

Solving for fluid region fluid
DILUPBiCGStab:  Solving for Ux, Initial residual = 0.00114864, Final residual = 4.93058e-05, No Iterations 1
DILUPBiCGStab:  Solving for Uy, Initial residual = 0.00440718, Final residual = 0.000185819, No Iterations 1
DILUPBiCGStab:  Solving for Uz, Initial residual = 0.00211171, Final residual = 8.8939e-05, No Iterations 1
DILUPBiCGStab:  Solving for h, Initial residual = 0.00135864, Final residual = 7.60961e-05, No Iterations 1
Min/max T:296.507 369.395
GAMG:  Solving for p_rgh, Initial residual = 0.00812554, Final residual = 3.84471e-05, No Iterations 3
GAMG:  Solving for p_rgh, Initial residual = 0.0014796, Final residual = 1.35911e-05, No Iterations 2
GAMG:  Solving for p_rgh, Initial residual = 0.000224046, Final residual = 1.1341e-06, No Iterations 4
time step continuity errors : sum local = 7.50479e-06, global = 1.78543e-06, cumulative = 1.78543e-06
ExecutionTime = 21.1064 s  ClockTime = 28 s

volFieldValue volAvgFinTemperature write:
    volAverage() of T = 368.205

volFieldValue volAvgHeaterTemperature write:
    volAverage() of T = 382.124

surfaceFieldValue averageTempHeaterFinInterface write:
    areaAverage(heater_to_fins) of T = 369.759

Region: fluid Courant Number mean: 1321.04 max: 82088.8
Region: fins Diffusion Number mean: 122.36 max: 10668.6
Region: heater Diffusion Number mean: 73.8557 max: 560.851
Time = 37s


Solving for solid region fins
GAMG:  Solving for e, Initial residual = 0.156716, Final residual = 0.00419504, No Iterations 1
Min/max T:367.109 371.842

Solving for solid region heater
GAMG:  Solving for e, Initial residual = 0.0539117, Final residual = 1.14578e-05, No Iterations 1
Min/max T:370.994 389.777

Solving for fluid region fluid
DILUPBiCGStab:  Solving for Ux, Initial residual = 0.00112853, Final residual = 4.83341e-05, No Iterations 1
DILUPBiCGStab:  Solving for Uy, Initial residual = 0.00426712, Final residual = 0.000180113, No Iterations 1
DILUPBiCGStab:  Solving for Uz, Initial residual = 0.00204783, Final residual = 8.60842e-05, No Iterations 1
DILUPBiCGStab:  Solving for h, Initial residual = 0.00132761, Final residual = 7.28344e-05, No Iterations 1
Min/max T:296.497 371.212
GAMG:  Solving for p_rgh, Initial residual = 0.00788341, Final residual = 3.69068e-05, No Iterations 3
GAMG:  Solving for p_rgh, Initial residual = 0.00136787, Final residual = 1.26966e-05, No Iterations 2
GAMG:  Solving for p_rgh, Initial residual = 0.000203497, Final residual = 1.02655e-06, No Iterations 4
time step continuity errors : sum local = 6.80706e-06, global = 1.01495e-06, cumulative = 1.01495e-06
ExecutionTime = 21.4734 s  ClockTime = 28 s

volFieldValue volAvgFinTemperature write:
    volAverage() of T = 369.989

volFieldValue volAvgHeaterTemperature write:
    volAverage() of T = 383.946

surfaceFieldValue averageTempHeaterFinInterface write:
    areaAverage(heater_to_fins) of T = 371.586

Region: fluid Courant Number mean: 1320.94 max: 81927.4
Region: fins Diffusion Number mean: 122.36 max: 10668.6
Region: heater Diffusion Number mean: 73.8557 max: 560.851
Time = 38s


Solving for solid region fins
GAMG:  Solving for e, Initial residual = 0.152629, Final residual = 0.00411282, No Iterations 1
Min/max T:368.852 373.656

Solving for solid region heater
GAMG:  Solving for e, Initial residual = 0.0534428, Final residual = 1.15986e-05, No Iterations 1
Min/max T:372.799 391.584

Solving for fluid region fluid
DILUPBiCGStab:  Solving for Ux, Initial residual = 0.00110929, Final residual = 4.74046e-05, No Iterations 1
DILUPBiCGStab:  Solving for Uy, Initial residual = 0.00415404, Final residual = 0.000175563, No Iterations 1
DILUPBiCGStab:  Solving for Uz, Initial residual = 0.00198618, Final residual = 8.33796e-05, No Iterations 1
DILUPBiCGStab:  Solving for h, Initial residual = 0.00129787, Final residual = 6.95366e-05, No Iterations 1
Min/max T:296.488 373.015
GAMG:  Solving for p_rgh, Initial residual = 0.00753855, Final residual = 3.41124e-05, No Iterations 3
GAMG:  Solving for p_rgh, Initial residual = 0.00130534, Final residual = 1.24918e-05, No Iterations 2
GAMG:  Solving for p_rgh, Initial residual = 0.000194244, Final residual = 9.89021e-07, No Iterations 4
time step continuity errors : sum local = 6.57056e-06, global = 5.5251e-07, cumulative = 5.5251e-07
ExecutionTime = 21.7518 s  ClockTime = 29 s

volFieldValue volAvgFinTemperature write:
    volAverage() of T = 371.758

volFieldValue volAvgHeaterTemperature write:
    volAverage() of T = 385.753

surfaceFieldValue averageTempHeaterFinInterface write:
    areaAverage(heater_to_fins) of T = 373.398

Region: fluid Courant Number mean: 1320.84 max: 81769.9
Region: fins Diffusion Number mean: 122.36 max: 10668.6
Region: heater Diffusion Number mean: 73.8557 max: 560.851
Time = 39s


Solving for solid region fins
GAMG:  Solving for e, Initial residual = 0.148673, Final residual = 0.00402791, No Iterations 1
Min/max T:370.579 375.455

Solving for solid region heater
GAMG:  Solving for e, Initial residual = 0.0529756, Final residual = 1.1731e-05, No Iterations 1
Min/max T:374.589 393.377

Solving for fluid region fluid
DILUPBiCGStab:  Solving for Ux, Initial residual = 0.00109088, Final residual = 4.65096e-05, No Iterations 1
DILUPBiCGStab:  Solving for Uy, Initial residual = 0.00405797, Final residual = 0.000171342, No Iterations 1
DILUPBiCGStab:  Solving for Uz, Initial residual = 0.00192717, Final residual = 8.08318e-05, No Iterations 1
DILUPBiCGStab:  Solving for h, Initial residual = 0.00126824, Final residual = 6.66476e-05, No Iterations 1
Min/max T:296.48 374.804
GAMG:  Solving for p_rgh, Initial residual = 0.00743657, Final residual = 3.43526e-05, No Iterations 3
GAMG:  Solving for p_rgh, Initial residual = 0.00129554, Final residual = 1.25714e-05, No Iterations 2
GAMG:  Solving for p_rgh, Initial residual = 0.000193144, Final residual = 1.00475e-06, No Iterations 4
time step continuity errors : sum local = 6.68755e-06, global = 2.35108e-07, cumulative = 2.35108e-07
ExecutionTime = 21.9454 s  ClockTime = 29 s

volFieldValue volAvgFinTemperature write:
    volAverage() of T = 373.512

volFieldValue volAvgHeaterTemperature write:
    volAverage() of T = 387.546

surfaceFieldValue averageTempHeaterFinInterface write:
    areaAverage(heater_to_fins) of T = 375.194

Region: fluid Courant Number mean: 1320.75 max: 81613.9
Region: fins Diffusion Number mean: 122.36 max: 10668.6
Region: heater Diffusion Number mean: 73.8557 max: 560.851
Time = 40s


Solving for solid region fins
GAMG:  Solving for e, Initial residual = 0.144865, Final residual = 0.00394458, No Iterations 1
Min/max T:372.291 377.239

Solving for solid region heater
GAMG:  Solving for e, Initial residual = 0.0525102, Final residual = 1.18559e-05, No Iterations 1
Min/max T:376.364 395.154

Solving for fluid region fluid
DILUPBiCGStab:  Solving for Ux, Initial residual = 0.00107311, Final residual = 4.56392e-05, No Iterations 1
DILUPBiCGStab:  Solving for Uy, Initial residual = 0.0039711, Final residual = 0.00016739, No Iterations 1
DILUPBiCGStab:  Solving for Uz, Initial residual = 0.00187183, Final residual = 7.84288e-05, No Iterations 1
DILUPBiCGStab:  Solving for h, Initial residual = 0.00123871, Final residual = 6.45782e-05, No Iterations 1
Min/max T:296.473 376.577
GAMG:  Solving for p_rgh, Initial residual = 0.0072542, Final residual = 3.22664e-05, No Iterations 3
GAMG:  Solving for p_rgh, Initial residual = 0.00125708, Final residual = 1.19087e-05, No Iterations 2
GAMG:  Solving for p_rgh, Initial residual = 0.000185966, Final residual = 9.73438e-07, No Iterations 4
time step continuity errors : sum local = 6.49231e-06, global = 1.55385e-07, cumulative = 1.55385e-07
ExecutionTime = 22.4112 s  ClockTime = 30 s

volFieldValue volAvgFinTemperature write:
    volAverage() of T = 375.251

volFieldValue volAvgHeaterTemperature write:
    volAverage() of T = 389.323

surfaceFieldValue averageTempHeaterFinInterface write:
    areaAverage(heater_to_fins) of T = 376.977

Region: fluid Courant Number mean: 1320.65 max: 81457.3
Region: fins Diffusion Number mean: 122.36 max: 10668.6
Region: heater Diffusion Number mean: 73.8557 max: 560.851
Time = 41s


Solving for solid region fins
GAMG:  Solving for e, Initial residual = 0.141188, Final residual = 0.00385916, No Iterations 1
Min/max T:373.988 379.008

Solving for solid region heater
GAMG:  Solving for e, Initial residual = 0.0520482, Final residual = 1.19519e-05, No Iterations 1
Min/max T:378.124 396.917

Solving for fluid region fluid
DILUPBiCGStab:  Solving for Ux, Initial residual = 0.00105562, Final residual = 4.47731e-05, No Iterations 1
DILUPBiCGStab:  Solving for Uy, Initial residual = 0.00388979, Final residual = 0.000163977, No Iterations 1
DILUPBiCGStab:  Solving for Uz, Initial residual = 0.00181729, Final residual = 7.60777e-05, No Iterations 1
DILUPBiCGStab:  Solving for h, Initial residual = 0.00121216, Final residual = 6.49708e-05, No Iterations 1
Min/max T:296.466 378.336
GAMG:  Solving for p_rgh, Initial residual = 0.00700223, Final residual = 3.16184e-05, No Iterations 3
GAMG:  Solving for p_rgh, Initial residual = 0.00123489, Final residual = 1.16198e-05, No Iterations 2
GAMG:  Solving for p_rgh, Initial residual = 0.00018512, Final residual = 9.6458e-07, No Iterations 4
time step continuity errors : sum local = 6.44514e-06, global = -4.00175e-08, cumulative = -4.00175e-08
ExecutionTime = 23.0299 s  ClockTime = 30 s

volFieldValue volAvgFinTemperature write:
    volAverage() of T = 376.976

volFieldValue volAvgHeaterTemperature write:
    volAverage() of T = 391.086

surfaceFieldValue averageTempHeaterFinInterface write:
    areaAverage(heater_to_fins) of T = 378.744

Region: fluid Courant Number mean: 1320.56 max: 81298.2
Region: fins Diffusion Number mean: 122.36 max: 10668.6
Region: heater Diffusion Number mean: 73.8557 max: 560.851
Time = 42s


Solving for solid region fins
GAMG:  Solving for e, Initial residual = 0.137643, Final residual = 0.00377543, No Iterations 1
Min/max T:375.67 380.763

Solving for solid region heater
GAMG:  Solving for e, Initial residual = 0.0515901, Final residual = 1.20196e-05, No Iterations 1
Min/max T:379.869 398.666

Solving for fluid region fluid
DILUPBiCGStab:  Solving for Ux, Initial residual = 0.00103832, Final residual = 4.39585e-05, No Iterations 1
DILUPBiCGStab:  Solving for Uy, Initial residual = 0.00381171, Final residual = 0.000160474, No Iterations 1
DILUPBiCGStab:  Solving for Uz, Initial residual = 0.00176486, Final residual = 7.38065e-05, No Iterations 1
DILUPBiCGStab:  Solving for h, Initial residual = 0.00118634, Final residual = 6.50484e-05, No Iterations 1
Min/max T:296.459 380.08
GAMG:  Solving for p_rgh, Initial residual = 0.00695694, Final residual = 3.21767e-05, No Iterations 3
GAMG:  Solving for p_rgh, Initial residual = 0.00124487, Final residual = 1.16898e-05, No Iterations 2
GAMG:  Solving for p_rgh, Initial residual = 0.000188214, Final residual = 9.55796e-07, No Iterations 4
time step continuity errors : sum local = 6.39749e-06, global = -1.56913e-07, cumulative = -1.56913e-07
ExecutionTime = 23.4376 s  ClockTime = 31 s

volFieldValue volAvgFinTemperature write:
    volAverage() of T = 378.686

volFieldValue volAvgHeaterTemperature write:
    volAverage() of T = 392.834

surfaceFieldValue averageTempHeaterFinInterface write:
    areaAverage(heater_to_fins) of T = 380.497

Region: fluid Courant Number mean: 1320.46 max: 81135
Region: fins Diffusion Number mean: 122.36 max: 10668.6
Region: heater Diffusion Number mean: 73.8557 max: 560.851
Time = 43s


Solving for solid region fins
GAMG:  Solving for e, Initial residual = 0.134231, Final residual = 0.003689, No Iterations 1
Min/max T:377.338 382.503

Solving for solid region heater
GAMG:  Solving for e, Initial residual = 0.0511375, Final residual = 1.20427e-05, No Iterations 1
Min/max T:381.6 400.4

Solving for fluid region fluid
DILUPBiCGStab:  Solving for Ux, Initial residual = 0.00102177, Final residual = 4.31907e-05, No Iterations 1
DILUPBiCGStab:  Solving for Uy, Initial residual = 0.00374228, Final residual = 0.000157357, No Iterations 1
DILUPBiCGStab:  Solving for Uz, Initial residual = 0.00171604, Final residual = 7.17365e-05, No Iterations 1
DILUPBiCGStab:  Solving for h, Initial residual = 0.00116204, Final residual = 6.52447e-05, No Iterations 1
Min/max T:296.453 381.81
GAMG:  Solving for p_rgh, Initial residual = 0.00686217, Final residual = 3.19478e-05, No Iterations 3
GAMG:  Solving for p_rgh, Initial residual = 0.00123608, Final residual = 1.17531e-05, No Iterations 2
GAMG:  Solving for p_rgh, Initial residual = 0.000187559, Final residual = 9.45252e-07, No Iterations 4
time step continuity errors : sum local = 6.33829e-06, global = -1.03238e-07, cumulative = -1.03238e-07
ExecutionTime = 23.8925 s  ClockTime = 31 s

volFieldValue volAvgFinTemperature write:
    volAverage() of T = 380.383

volFieldValue volAvgHeaterTemperature write:
    volAverage() of T = 394.568

surfaceFieldValue averageTempHeaterFinInterface write:
    areaAverage(heater_to_fins) of T = 382.235

Region: fluid Courant Number mean: 1320.37 max: 80966.1
Region: fins Diffusion Number mean: 122.36 max: 10668.6
Region: heater Diffusion Number mean: 73.8557 max: 560.851
Time = 44s


Solving for solid region fins
GAMG:  Solving for e, Initial residual = 0.130946, Final residual = 0.00360167, No Iterations 1
Min/max T:378.991 384.229

Solving for solid region heater
GAMG:  Solving for e, Initial residual = 0.0506901, Final residual = 1.20285e-05, No Iterations 1
Min/max T:383.316 402.12

Solving for fluid region fluid
DILUPBiCGStab:  Solving for Ux, Initial residual = 0.00100521, Final residual = 4.24062e-05, No Iterations 1
DILUPBiCGStab:  Solving for Uy, Initial residual = 0.00367361, Final residual = 0.000154179, No Iterations 1
DILUPBiCGStab:  Solving for Uz, Initial residual = 0.00167031, Final residual = 6.97943e-05, No Iterations 1
DILUPBiCGStab:  Solving for h, Initial residual = 0.00113901, Final residual = 6.53885e-05, No Iterations 1
Min/max T:296.448 383.526
GAMG:  Solving for p_rgh, Initial residual = 0.00684069, Final residual = 3.26001e-05, No Iterations 3
GAMG:  Solving for p_rgh, Initial residual = 0.00123392, Final residual = 1.19945e-05, No Iterations 2
GAMG:  Solving for p_rgh, Initial residual = 0.000188931, Final residual = 9.59704e-07, No Iterations 4
time step continuity errors : sum local = 6.44741e-06, global = -2.55032e-07, cumulative = -2.55032e-07
ExecutionTime = 24.1271 s  ClockTime = 32 s

volFieldValue volAvgFinTemperature write:
    volAverage() of T = 382.065

volFieldValue volAvgHeaterTemperature write:
    volAverage() of T = 396.287

surfaceFieldValue averageTempHeaterFinInterface write:
    areaAverage(heater_to_fins) of T = 383.959

Region: fluid Courant Number mean: 1320.27 max: 80790.4
Region: fins Diffusion Number mean: 122.36 max: 10668.6
Region: heater Diffusion Number mean: 73.8557 max: 560.851
Time = 45s


Solving for solid region fins
GAMG:  Solving for e, Initial residual = 0.127787, Final residual = 0.00351254, No Iterations 1
Min/max T:380.631 385.941

Solving for solid region heater
GAMG:  Solving for e, Initial residual = 0.0502474, Final residual = 1.1985e-05, No Iterations 1
Min/max T:385.018 403.825

Solving for fluid region fluid
DILUPBiCGStab:  Solving for Ux, Initial residual = 0.000988911, Final residual = 4.16266e-05, No Iterations 1
DILUPBiCGStab:  Solving for Uy, Initial residual = 0.00360841, Final residual = 0.000151463, No Iterations 1
DILUPBiCGStab:  Solving for Uz, Initial residual = 0.0016263, Final residual = 6.80061e-05, No Iterations 1
DILUPBiCGStab:  Solving for h, Initial residual = 0.00111579, Final residual = 6.53518e-05, No Iterations 1
Min/max T:296.442 385.228
GAMG:  Solving for p_rgh, Initial residual = 0.00675486, Final residual = 3.09918e-05, No Iterations 3
GAMG:  Solving for p_rgh, Initial residual = 0.00120362, Final residual = 1.15709e-05, No Iterations 2
GAMG:  Solving for p_rgh, Initial residual = 0.000185716, Final residual = 9.11633e-07, No Iterations 4
[...]
DILUPBiCGStab:  Solving for Uy, Initial residual = 4.0001e-08, Final residual = 4.0001e-08, No Iterations 0
DILUPBiCGStab:  Solving for Uz, Initial residual = 1.06903e-08, Final residual = 1.06903e-08, No Iterations 0
DILUPBiCGStab:  Solving for h, Initial residual = 0.000560077, Final residual = 1.79632e-05, No Iterations 1
Min/max T:295.346 579.72
GAMG:  Solving for p_rgh, Initial residual = 1.51786e-07, Final residual = 6.51494e-09, No Iterations 1
GAMG:  Solving for p_rgh, Initial residual = 7.15161e-08, Final residual = 7.15161e-08, No Iterations 0
GAMG:  Solving for p_rgh, Initial residual = 7.15161e-08, Final residual = 7.15161e-08, No Iterations 0
time step continuity errors : sum local = 5.71823e-07, global = -1.69087e-10, cumulative = -1.69087e-10
ExecutionTime = 409.546 s  ClockTime = 755 s

volFieldValue volAvgFinTemperature write:
    volAverage() of T = 574.185

volFieldValue volAvgHeaterTemperature write:
    volAverage() of T = 592.879

surfaceFieldValue averageTempHeaterFinInterface write:
    areaAverage(heater_to_fins) of T = 581.083

Region: fluid Courant Number mean: 1313.44 max: 51375.3
Region: fins Diffusion Number mean: 122.36 max: 10668.6
Region: heater Diffusion Number mean: 73.8557 max: 560.851
Time = 1990s


Solving for solid region fins
GAMG:  Solving for e, Initial residual = 5.94842e-07, Final residual = 5.94842e-07, No Iterations 0
Min/max T:567.488 582.27

Solving for solid region heater
GAMG:  Solving for e, Initial residual = 6.35464e-07, Final residual = 6.35464e-07, No Iterations 0
Min/max T:579.065 598.755

Solving for fluid region fluid
DILUPBiCGStab:  Solving for Ux, Initial residual = 3.30779e-09, Final residual = 3.30779e-09, No Iterations 0
DILUPBiCGStab:  Solving for Uy, Initial residual = 4.07828e-08, Final residual = 4.07828e-08, No Iterations 0
DILUPBiCGStab:  Solving for Uz, Initial residual = 1.12357e-08, Final residual = 1.12357e-08, No Iterations 0
DILUPBiCGStab:  Solving for h, Initial residual = 0.000560077, Final residual = 1.79632e-05, No Iterations 1
Min/max T:295.346 579.72
GAMG:  Solving for p_rgh, Initial residual = 1.85334e-07, Final residual = 8.10873e-09, No Iterations 1
GAMG:  Solving for p_rgh, Initial residual = 1.00548e-07, Final residual = 4.45782e-09, No Iterations 1
GAMG:  Solving for p_rgh, Initial residual = 6.77067e-08, Final residual = 6.77067e-08, No Iterations 0
time step continuity errors : sum local = 5.41365e-07, global = -1.19976e-10, cumulative = -1.19976e-10
ExecutionTime = 409.592 s  ClockTime = 756 s

volFieldValue volAvgFinTemperature write:
    volAverage() of T = 574.185

volFieldValue volAvgHeaterTemperature write:
    volAverage() of T = 592.879

surfaceFieldValue averageTempHeaterFinInterface write:
    areaAverage(heater_to_fins) of T = 581.083

Region: fluid Courant Number mean: 1313.44 max: 51375.3
Region: fins Diffusion Number mean: 122.36 max: 10668.6
Region: heater Diffusion Number mean: 73.8557 max: 560.851
Time = 1991s


Solving for solid region fins
GAMG:  Solving for e, Initial residual = 5.94615e-07, Final residual = 5.94615e-07, No Iterations 0
Min/max T:567.488 582.27

Solving for solid region heater
GAMG:  Solving for e, Initial residual = 6.35464e-07, Final residual = 6.35464e-07, No Iterations 0
Min/max T:579.065 598.755

Solving for fluid region fluid
DILUPBiCGStab:  Solving for Ux, Initial residual = 3.25873e-09, Final residual = 3.25873e-09, No Iterations 0
DILUPBiCGStab:  Solving for Uy, Initial residual = 3.97631e-08, Final residual = 3.97631e-08, No Iterations 0
DILUPBiCGStab:  Solving for Uz, Initial residual = 1.07559e-08, Final residual = 1.07559e-08, No Iterations 0
DILUPBiCGStab:  Solving for h, Initial residual = 0.000560077, Final residual = 1.79632e-05, No Iterations 1
Min/max T:295.346 579.72
GAMG:  Solving for p_rgh, Initial residual = 1.50583e-07, Final residual = 6.6093e-09, No Iterations 1
GAMG:  Solving for p_rgh, Initial residual = 6.85134e-08, Final residual = 6.85134e-08, No Iterations 0
GAMG:  Solving for p_rgh, Initial residual = 6.85134e-08, Final residual = 6.85134e-08, No Iterations 0
time step continuity errors : sum local = 5.47815e-07, global = -1.06443e-10, cumulative = -1.06443e-10
ExecutionTime = 409.637 s  ClockTime = 756 s

volFieldValue volAvgFinTemperature write:
    volAverage() of T = 574.185

volFieldValue volAvgHeaterTemperature write:
    volAverage() of T = 592.879

surfaceFieldValue averageTempHeaterFinInterface write:
    areaAverage(heater_to_fins) of T = 581.083

Region: fluid Courant Number mean: 1313.44 max: 51375.3
Region: fins Diffusion Number mean: 122.36 max: 10668.6
Region: heater Diffusion Number mean: 73.8557 max: 560.851
Time = 1992s


Solving for solid region fins
GAMG:  Solving for e, Initial residual = 5.94543e-07, Final residual = 5.94543e-07, No Iterations 0
Min/max T:567.488 582.27

Solving for solid region heater
GAMG:  Solving for e, Initial residual = 6.35464e-07, Final residual = 6.35464e-07, No Iterations 0
Min/max T:579.065 598.755

Solving for fluid region fluid
DILUPBiCGStab:  Solving for Ux, Initial residual = 3.26723e-09, Final residual = 3.26723e-09, No Iterations 0
DILUPBiCGStab:  Solving for Uy, Initial residual = 4.02201e-08, Final residual = 4.02201e-08, No Iterations 0
DILUPBiCGStab:  Solving for Uz, Initial residual = 1.09672e-08, Final residual = 1.09672e-08, No Iterations 0
DILUPBiCGStab:  Solving for h, Initial residual = 0.000560077, Final residual = 1.79632e-05, No Iterations 1
Min/max T:295.346 579.72
GAMG:  Solving for p_rgh, Initial residual = 1.71733e-07, Final residual = 8.16097e-09, No Iterations 1
GAMG:  Solving for p_rgh, Initial residual = 9.50976e-08, Final residual = 9.50976e-08, No Iterations 0
GAMG:  Solving for p_rgh, Initial residual = 9.50976e-08, Final residual = 9.50976e-08, No Iterations 0
time step continuity errors : sum local = 7.60375e-07, global = -1.01579e-10, cumulative = -1.01579e-10
ExecutionTime = 409.689 s  ClockTime = 756 s

volFieldValue volAvgFinTemperature write:
    volAverage() of T = 574.185

volFieldValue volAvgHeaterTemperature write:
    volAverage() of T = 592.879

surfaceFieldValue averageTempHeaterFinInterface write:
    areaAverage(heater_to_fins) of T = 581.083

Region: fluid Courant Number mean: 1313.44 max: 51375.3
Region: fins Diffusion Number mean: 122.36 max: 10668.6
Region: heater Diffusion Number mean: 73.8557 max: 560.851
Time = 1993s


Solving for solid region fins
GAMG:  Solving for e, Initial residual = 5.94356e-07, Final residual = 5.94356e-07, No Iterations 0
Min/max T:567.488 582.27

Solving for solid region heater
GAMG:  Solving for e, Initial residual = 6.35464e-07, Final residual = 6.35464e-07, No Iterations 0
Min/max T:579.065 598.755

Solving for fluid region fluid
DILUPBiCGStab:  Solving for Ux, Initial residual = 3.23726e-09, Final residual = 3.23726e-09, No Iterations 0
DILUPBiCGStab:  Solving for Uy, Initial residual = 4.00563e-08, Final residual = 4.00563e-08, No Iterations 0
DILUPBiCGStab:  Solving for Uz, Initial residual = 1.08914e-08, Final residual = 1.08914e-08, No Iterations 0
DILUPBiCGStab:  Solving for h, Initial residual = 0.000560077, Final residual = 1.79632e-05, No Iterations 1
Min/max T:295.346 579.72
GAMG:  Solving for p_rgh, Initial residual = 1.98466e-07, Final residual = 8.17434e-09, No Iterations 1
GAMG:  Solving for p_rgh, Initial residual = 1.11289e-07, Final residual = 5.23062e-09, No Iterations 1
GAMG:  Solving for p_rgh, Initial residual = 7.6399e-08, Final residual = 7.6399e-08, No Iterations 0
time step continuity errors : sum local = 6.10866e-07, global = -1.62481e-10, cumulative = -1.62481e-10
ExecutionTime = 409.739 s  ClockTime = 756 s

volFieldValue volAvgFinTemperature write:
    volAverage() of T = 574.185

volFieldValue volAvgHeaterTemperature write:
    volAverage() of T = 592.879

surfaceFieldValue averageTempHeaterFinInterface write:
    areaAverage(heater_to_fins) of T = 581.083

Region: fluid Courant Number mean: 1313.44 max: 51375.3
Region: fins Diffusion Number mean: 122.36 max: 10668.6
Region: heater Diffusion Number mean: 73.8557 max: 560.851
Time = 1994s


Solving for solid region fins
GAMG:  Solving for e, Initial residual = 5.94285e-07, Final residual = 5.94285e-07, No Iterations 0
Min/max T:567.488 582.27

Solving for solid region heater
GAMG:  Solving for e, Initial residual = 6.35464e-07, Final residual = 6.35464e-07, No Iterations 0
Min/max T:579.065 598.755

Solving for fluid region fluid
DILUPBiCGStab:  Solving for Ux, Initial residual = 3.17849e-09, Final residual = 3.17849e-09, No Iterations 0
DILUPBiCGStab:  Solving for Uy, Initial residual = 3.89859e-08, Final residual = 3.89859e-08, No Iterations 0
DILUPBiCGStab:  Solving for Uz, Initial residual = 1.03116e-08, Final residual = 1.03116e-08, No Iterations 0
DILUPBiCGStab:  Solving for h, Initial residual = 0.000560077, Final residual = 1.79632e-05, No Iterations 1
Min/max T:295.346 579.72
GAMG:  Solving for p_rgh, Initial residual = 1.47998e-07, Final residual = 6.38287e-09, No Iterations 1
GAMG:  Solving for p_rgh, Initial residual = 6.9784e-08, Final residual = 6.9784e-08, No Iterations 0
GAMG:  Solving for p_rgh, Initial residual = 6.9784e-08, Final residual = 6.9784e-08, No Iterations 0
time step continuity errors : sum local = 5.57974e-07, global = -2.60499e-10, cumulative = -2.60499e-10
ExecutionTime = 409.795 s  ClockTime = 756 s

volFieldValue volAvgFinTemperature write:
    volAverage() of T = 574.185

volFieldValue volAvgHeaterTemperature write:
    volAverage() of T = 592.879

surfaceFieldValue averageTempHeaterFinInterface write:
    areaAverage(heater_to_fins) of T = 581.083

Region: fluid Courant Number mean: 1313.44 max: 51375.3
Region: fins Diffusion Number mean: 122.36 max: 10668.6
Region: heater Diffusion Number mean: 73.8557 max: 560.851
Time = 1995s


Solving for solid region fins
GAMG:  Solving for e, Initial residual = 5.94199e-07, Final residual = 5.94199e-07, No Iterations 0
Min/max T:567.488 582.27

Solving for solid region heater
GAMG:  Solving for e, Initial residual = 6.35464e-07, Final residual = 6.35464e-07, No Iterations 0
Min/max T:579.065 598.755

Solving for fluid region fluid
DILUPBiCGStab:  Solving for Ux, Initial residual = 3.20118e-09, Final residual = 3.20118e-09, No Iterations 0
DILUPBiCGStab:  Solving for Uy, Initial residual = 3.96991e-08, Final residual = 3.96991e-08, No Iterations 0
DILUPBiCGStab:  Solving for Uz, Initial residual = 1.08001e-08, Final residual = 1.08001e-08, No Iterations 0
DILUPBiCGStab:  Solving for h, Initial residual = 0.000560077, Final residual = 1.79632e-05, No Iterations 1
Min/max T:295.346 579.72
GAMG:  Solving for p_rgh, Initial residual = 1.79624e-07, Final residual = 7.73102e-09, No Iterations 1
GAMG:  Solving for p_rgh, Initial residual = 9.59995e-08, Final residual = 9.59995e-08, No Iterations 0
GAMG:  Solving for p_rgh, Initial residual = 9.59995e-08, Final residual = 9.59995e-08, No Iterations 0
time step continuity errors : sum local = 7.67586e-07, global = -3.38368e-10, cumulative = -3.38368e-10
ExecutionTime = 409.844 s  ClockTime = 756 s

volFieldValue volAvgFinTemperature write:
    volAverage() of T = 574.185

volFieldValue volAvgHeaterTemperature write:
    volAverage() of T = 592.879

surfaceFieldValue averageTempHeaterFinInterface write:
    areaAverage(heater_to_fins) of T = 581.083

Region: fluid Courant Number mean: 1313.44 max: 51375.3
Region: fins Diffusion Number mean: 122.36 max: 10668.6
Region: heater Diffusion Number mean: 73.8557 max: 560.851
Time = 1996s


Solving for solid region fins
GAMG:  Solving for e, Initial residual = 5.93988e-07, Final residual = 5.93988e-07, No Iterations 0
Min/max T:567.488 582.27

Solving for solid region heater
GAMG:  Solving for e, Initial residual = 6.35464e-07, Final residual = 6.35464e-07, No Iterations 0
Min/max T:579.065 598.755

Solving for fluid region fluid
DILUPBiCGStab:  Solving for Ux, Initial residual = 3.17417e-09, Final residual = 3.17417e-09, No Iterations 0
DILUPBiCGStab:  Solving for Uy, Initial residual = 3.92473e-08, Final residual = 3.92473e-08, No Iterations 0
DILUPBiCGStab:  Solving for Uz, Initial residual = 1.06373e-08, Final residual = 1.06373e-08, No Iterations 0
DILUPBiCGStab:  Solving for h, Initial residual = 0.000560077, Final residual = 1.79632e-05, No Iterations 1
Min/max T:295.346 579.72
GAMG:  Solving for p_rgh, Initial residual = 1.98013e-07, Final residual = 8.49874e-09, No Iterations 1
GAMG:  Solving for p_rgh, Initial residual = 1.15283e-07, Final residual = 5.25941e-09, No Iterations 1
GAMG:  Solving for p_rgh, Initial residual = 7.8138e-08, Final residual = 7.8138e-08, No Iterations 0
time step continuity errors : sum local = 6.2477e-07, global = -3.96845e-10, cumulative = -3.96845e-10
ExecutionTime = 409.895 s  ClockTime = 756 s

volFieldValue volAvgFinTemperature write:
    volAverage() of T = 574.185

volFieldValue volAvgHeaterTemperature write:
    volAverage() of T = 592.879

surfaceFieldValue averageTempHeaterFinInterface write:
    areaAverage(heater_to_fins) of T = 581.083

Region: fluid Courant Number mean: 1313.44 max: 51375.3
Region: fins Diffusion Number mean: 122.36 max: 10668.6
Region: heater Diffusion Number mean: 73.8557 max: 560.851
Time = 1997s


Solving for solid region fins
GAMG:  Solving for e, Initial residual = 5.93944e-07, Final residual = 5.93944e-07, No Iterations 0
Min/max T:567.488 582.27

Solving for solid region heater
GAMG:  Solving for e, Initial residual = 6.35464e-07, Final residual = 6.35464e-07, No Iterations 0
Min/max T:579.065 598.755

Solving for fluid region fluid
DILUPBiCGStab:  Solving for Ux, Initial residual = 3.11881e-09, Final residual = 3.11881e-09, No Iterations 0
DILUPBiCGStab:  Solving for Uy, Initial residual = 3.82973e-08, Final residual = 3.82973e-08, No Iterations 0
DILUPBiCGStab:  Solving for Uz, Initial residual = 1.01751e-08, Final residual = 1.01751e-08, No Iterations 0
DILUPBiCGStab:  Solving for h, Initial residual = 0.000560077, Final residual = 1.79632e-05, No Iterations 1
Min/max T:295.346 579.72
GAMG:  Solving for p_rgh, Initial residual = 1.47945e-07, Final residual = 6.61826e-09, No Iterations 1
GAMG:  Solving for p_rgh, Initial residual = 7.00807e-08, Final residual = 7.00807e-08, No Iterations 0
GAMG:  Solving for p_rgh, Initial residual = 7.00807e-08, Final residual = 7.00807e-08, No Iterations 0
time step continuity errors : sum local = 5.60347e-07, global = -4.3381e-10, cumulative = -4.3381e-10
ExecutionTime = 409.942 s  ClockTime = 756 s

volFieldValue volAvgFinTemperature write:
    volAverage() of T = 574.185

volFieldValue volAvgHeaterTemperature write:
    volAverage() of T = 592.879

surfaceFieldValue averageTempHeaterFinInterface write:
    areaAverage(heater_to_fins) of T = 581.083

Region: fluid Courant Number mean: 1313.44 max: 51375.3
Region: fins Diffusion Number mean: 122.36 max: 10668.6
Region: heater Diffusion Number mean: 73.8557 max: 560.851
Time = 1998s


Solving for solid region fins
GAMG:  Solving for e, Initial residual = 5.93862e-07, Final residual = 5.93862e-07, No Iterations 0
Min/max T:567.488 582.27

Solving for solid region heater
GAMG:  Solving for e, Initial residual = 6.35464e-07, Final residual = 6.35464e-07, No Iterations 0
Min/max T:579.065 598.755

Solving for fluid region fluid
DILUPBiCGStab:  Solving for Ux, Initial residual = 3.13813e-09, Final residual = 3.13813e-09, No Iterations 0
DILUPBiCGStab:  Solving for Uy, Initial residual = 3.8999e-08, Final residual = 3.8999e-08, No Iterations 0
DILUPBiCGStab:  Solving for Uz, Initial residual = 1.06777e-08, Final residual = 1.06777e-08, No Iterations 0
DILUPBiCGStab:  Solving for h, Initial residual = 0.000560077, Final residual = 1.79632e-05, No Iterations 1
Min/max T:295.346 579.72
GAMG:  Solving for p_rgh, Initial residual = 1.79789e-07, Final residual = 7.95561e-09, No Iterations 1
GAMG:  Solving for p_rgh, Initial residual = 9.84671e-08, Final residual = 9.84671e-08, No Iterations 0
GAMG:  Solving for p_rgh, Initial residual = 9.84671e-08, Final residual = 9.84671e-08, No Iterations 0
time step continuity errors : sum local = 7.87316e-07, global = -4.18544e-10, cumulative = -4.18544e-10
ExecutionTime = 409.99 s  ClockTime = 757 s

volFieldValue volAvgFinTemperature write:
    volAverage() of T = 574.185

volFieldValue volAvgHeaterTemperature write:
    volAverage() of T = 592.879

surfaceFieldValue averageTempHeaterFinInterface write:
    areaAverage(heater_to_fins) of T = 581.083

Region: fluid Courant Number mean: 1313.44 max: 51375.3
Region: fins Diffusion Number mean: 122.36 max: 10668.6
Region: heater Diffusion Number mean: 73.8557 max: 560.851
Time = 1999s


Solving for solid region fins
GAMG:  Solving for e, Initial residual = 5.93645e-07, Final residual = 5.93645e-07, No Iterations 0
Min/max T:567.488 582.27

Solving for solid region heater
GAMG:  Solving for e, Initial residual = 6.35464e-07, Final residual = 6.35464e-07, No Iterations 0
Min/max T:579.065 598.755

Solving for fluid region fluid
DILUPBiCGStab:  Solving for Ux, Initial residual = 3.12705e-09, Final residual = 3.12705e-09, No Iterations 0
DILUPBiCGStab:  Solving for Uy, Initial residual = 3.85322e-08, Final residual = 3.85322e-08, No Iterations 0
DILUPBiCGStab:  Solving for Uz, Initial residual = 1.05101e-08, Final residual = 1.05101e-08, No Iterations 0
DILUPBiCGStab:  Solving for h, Initial residual = 0.000560077, Final residual = 1.79632e-05, No Iterations 1
Min/max T:295.346 579.72
GAMG:  Solving for p_rgh, Initial residual = 2.00199e-07, Final residual = 8.19826e-09, No Iterations 1
GAMG:  Solving for p_rgh, Initial residual = 1.15598e-07, Final residual = 5.23011e-09, No Iterations 1
GAMG:  Solving for p_rgh, Initial residual = 7.90083e-08, Final residual = 7.90083e-08, No Iterations 0
time step continuity errors : sum local = 6.31729e-07, global = -3.6441e-10, cumulative = -3.6441e-10
ExecutionTime = 410.031 s  ClockTime = 757 s

volFieldValue volAvgFinTemperature write:
    volAverage() of T = 574.185

volFieldValue volAvgHeaterTemperature write:
    volAverage() of T = 592.879

surfaceFieldValue averageTempHeaterFinInterface write:
    areaAverage(heater_to_fins) of T = 581.083

Region: fluid Courant Number mean: 1313.44 max: 51375.3
Region: fins Diffusion Number mean: 122.36 max: 10668.6
Region: heater Diffusion Number mean: 73.8557 max: 560.851
Time = 2000s


Solving for solid region fins
GAMG:  Solving for e, Initial residual = 5.93592e-07, Final residual = 5.93592e-07, No Iterations 0
Min/max T:567.488 582.27

Solving for solid region heater
GAMG:  Solving for e, Initial residual = 6.35464e-07, Final residual = 6.35464e-07, No Iterations 0
Min/max T:579.065 598.755

Solving for fluid region fluid
DILUPBiCGStab:  Solving for Ux, Initial residual = 3.05689e-09, Final residual = 3.05689e-09, No Iterations 0
DILUPBiCGStab:  Solving for Uy, Initial residual = 3.75311e-08, Final residual = 3.75311e-08, No Iterations 0
DILUPBiCGStab:  Solving for Uz, Initial residual = 9.9996e-09, Final residual = 9.9996e-09, No Iterations 0
DILUPBiCGStab:  Solving for h, Initial residual = 0.000560077, Final residual = 1.79632e-05, No Iterations 1
Min/max T:295.346 579.72
GAMG:  Solving for p_rgh, Initial residual = 1.47866e-07, Final residual = 6.33585e-09, No Iterations 1
GAMG:  Solving for p_rgh, Initial residual = 7.04997e-08, Final residual = 7.04997e-08, No Iterations 0
GAMG:  Solving for p_rgh, Initial residual = 7.04997e-08, Final residual = 7.04997e-08, No Iterations 0
time step continuity errors : sum local = 5.63697e-07, global = -2.98526e-10, cumulative = -2.98526e-10
ExecutionTime = 410.129 s  ClockTime = 757 s

volFieldValue volAvgFinTemperature write:
    volAverage() of T = 574.185

volFieldValue volAvgHeaterTemperature write:
    volAverage() of T = 592.879

surfaceFieldValue averageTempHeaterFinInterface write:
    areaAverage(heater_to_fins) of T = 581.083

End

