/*---------------------------------------------------------------------------*\
  =========                 |
  \\      /  F ield         | OpenFOAM: The Open Source CFD Toolbox
   \\    /   O peration     | Website:  https://openfoam.org
    \\  /    A nd           | Version:  10
     \\/     M anipulation  |
\*---------------------------------------------------------------------------*/
Build  : 10-c4cf895ad8fa
Exec   : chtMultiRegionFoam
Date   : Nov 01 2023
Time   : 09:05:21
Host   : "alexesn"
PID    : 7562
I/O    : uncollated
Case   : /mnt/c/Users/sasch/OneDrive/Desktop/MEPhI/Project_practice/FOAM_project/heatExchanger/all_auto/case_0_0
nProcs : 1
sigFpe : Enabling floating point exception trapping (FOAM_SIGFPE).
fileModificationChecking : Monitoring run-time modified files using timeStampMaster (fileModificationSkew 10)
allowSystemOperations : Allowing user-supplied system call operations

// * * * * * * * * * * * * * * * * * * * * * * * * * * * * * * * * * * * * * //
Create time

Create fluid mesh for region fluid for time = 0

Create solid mesh for region fins for time = 0

Create solid mesh for region heater for time = 0


PIMPLE: Region fluid
PIMPLE: No convergence criteria found


PIMPLE: Region fins
PIMPLE: No convergence criteria found


PIMPLE: Region heater
PIMPLE: No convergence criteria found


PIMPLE: Operating solver in steady-state mode with 1 outer corrector
PIMPLE: Operating solver in SIMPLE mode


*** Reading fluid mesh thermophysical properties for region fluid

    Adding to thermoFluid

Selecting thermodynamics package 
{
    type            heRhoThermo;
    mixture         pureMixture;
    transport       const;
    thermo          hConst;
    equationOfState rhoConst;
    specie          specie;
    energy          sensibleEnthalpy;
}

    Adding to rhoFluid

    Adding to UFluid

    Adding to phiFluid

    Adding to gFluid

    Adding to hRefFluid

    Adding to pRefFluid

    Adding to ghFluid

    Adding to ghfFluid

    Adding to turbulenceFluid

Selecting turbulence model type laminar
Selecting laminar stress model Stokes
    Adding to thermophysicalTransport

Selecting thermophysical transport type laminar
Selecting default laminar thermophysical transport model unityLewisFourier
    Adding to reactionFluid

Combustion model not active: combustionProperties not found
Selecting combustion model none
    Adding to KFluid

    Adding to dpdtFluid

    Adding to fieldsFluid

    Adding MRF

No MRF models present

    Adding fvModelsFluid

    Adding fvConstraintsFluid

Creating fvConstraints from "system/fvConstraints"

Selecting finite volume constraint type limitTemperature
    Name: limitT
    - selecting all cells
    - selected 11418 cell(s) with volume 0.00149667
*** Reading solid mesh thermophysical properties for region fins

    Adding to thermoSolid

Selecting thermodynamics package 
{
    type            heSolidThermo;
    mixture         pureMixture;
    transport       constIsoSolid;
    thermo          eConst;
    equationOfState rhoConst;
    specie          specie;
    energy          sensibleInternalEnergy;
}

    Adding to fvModelsSolid

    Adding fvConstraintsSolid

*** Reading solid mesh thermophysical properties for region heater

    Adding to thermoSolid

Selecting thermodynamics package 
{
    type            heSolidThermo;
    mixture         pureMixture;
    transport       constIsoSolid;
    thermo          eConst;
    equationOfState rhoConst;
    specie          specie;
    energy          sensibleInternalEnergy;
}

    Adding to fvModelsSolid

Creating fvModels from "constant/fvModels"

Selecting finite volume model type heatSource
    Name: energySource
    - selecting all cells
    - selected 614 cell(s) with volume 1e-06
    Adding fvConstraintsSolid

Region: fluid Courant Number mean: 1341.93 max: 154557
Region: fins Diffusion Number mean: 134.706 max: 143320
Region: heater Diffusion Number mean: 72.7343 max: 636.443








surfaceFieldValue averageTempHeaterFinInterface:
    total faces  = 56
    total area   = 0.0001


volFieldValue volAvgFinTemperature write:
    volAverage() of T = 296.9

volFieldValue volAvgHeaterTemperature write:
    volAverage() of T = 296.9

surfaceFieldValue averageTempHeaterFinInterface write:
    areaAverage(heater_to_fins) of T = 296.9

Region: fluid Courant Number mean: 1341.93 max: 154557
Region: fins Diffusion Number mean: 134.706 max: 143320
Region: heater Diffusion Number mean: 72.7343 max: 636.443
Time = 1s


Solving for solid region fins
GAMG:  Solving for e, Initial residual = 0.983021, Final residual = 0.0423866, No Iterations 1
Min/max T:296.9 296.9

Solving for solid region heater
GAMG:  Solving for e, Initial residual = 1, Final residual = 0.0656559, No Iterations 3
Min/max T:296.9 314.361

Solving for fluid region fluid
DILUPBiCGStab:  Solving for Ux, Initial residual = 1, Final residual = 0.0252402, No Iterations 1
DILUPBiCGStab:  Solving for Uy, Initial residual = 1, Final residual = 0.0282097, No Iterations 1
DILUPBiCGStab:  Solving for Uz, Initial residual = 1, Final residual = 0.0302195, No Iterations 1
DILUPBiCGStab:  Solving for h, Initial residual = 1, Final residual = 0.073554, No Iterations 1
Min/max T:295.412 297.758
GAMG:  Solving for p_rgh, Initial residual = 1, Final residual = 0.00904509, No Iterations 7
GAMG:  Solving for p_rgh, Initial residual = 0.442123, Final residual = 0.00281451, No Iterations 2
GAMG:  Solving for p_rgh, Initial residual = 0.039032, Final residual = 0.000218306, No Iterations 3
time step continuity errors : sum local = 0.0123865, global = -0.00394859, cumulative = -0.00394859
ExecutionTime = 5.22117 s  ClockTime = 12 s

volFieldValue volAvgFinTemperature write:
    volAverage() of T = 296.9

volFieldValue volAvgHeaterTemperature write:
    volAverage() of T = 308.791

surfaceFieldValue averageTempHeaterFinInterface write:
    areaAverage(heater_to_fins) of T = 296.9

Region: fluid Courant Number mean: 1341.65 max: 116261
Region: fins Diffusion Number mean: 134.706 max: 143320
Region: heater Diffusion Number mean: 72.7343 max: 636.443
Time = 2s


Solving for solid region fins
GAMG:  Solving for e, Initial residual = 1, Final residual = 0.0288174, No Iterations 1
Min/max T:296.898 299.426

Solving for solid region heater
GAMG:  Solving for e, Initial residual = 0.240773, Final residual = 0.0062235, No Iterations 1
Min/max T:298.581 316.698

Solving for fluid region fluid
DILUPBiCGStab:  Solving for Ux, Initial residual = 0.188904, Final residual = 0.00819243, No Iterations 1
DILUPBiCGStab:  Solving for Uy, Initial residual = 0.33339, Final residual = 0.0141773, No Iterations 1
DILUPBiCGStab:  Solving for Uz, Initial residual = 0.41333, Final residual = 0.0177003, No Iterations 1
DILUPBiCGStab:  Solving for h, Initial residual = 0.475105, Final residual = 0.041167, No Iterations 1
Min/max T:289.753 299.24
GAMG:  Solving for p_rgh, Initial residual = 0.233473, Final residual = 0.00126969, No Iterations 6
GAMG:  Solving for p_rgh, Initial residual = 0.7234, Final residual = 0.00539933, No Iterations 2
GAMG:  Solving for p_rgh, Initial residual = 0.13437, Final residual = 0.00101086, No Iterations 3
time step continuity errors : sum local = 0.0307295, global = 0.00897829, cumulative = 0.00897829
ExecutionTime = 5.42866 s  ClockTime = 12 s

volFieldValue volAvgFinTemperature write:
    volAverage() of T = 299.081

volFieldValue volAvgHeaterTemperature write:
    volAverage() of T = 311.185

surfaceFieldValue averageTempHeaterFinInterface write:
    areaAverage(heater_to_fins) of T = 299.129

Region: fluid Courant Number mean: 1342.02 max: 116901
Region: fins Diffusion Number mean: 134.706 max: 143320
Region: heater Diffusion Number mean: 72.7343 max: 636.443
Time = 3s


Solving for solid region fins
GAMG:  Solving for e, Initial residual = 0.571537, Final residual = 0.012164, No Iterations 1
Min/max T:298.919 301.637

Solving for solid region heater
GAMG:  Solving for e, Initial residual = 0.0888637, Final residual = 0.00289866, No Iterations 1
Min/max T:300.771 319.212

Solving for fluid region fluid
DILUPBiCGStab:  Solving for Ux, Initial residual = 0.0785694, Final residual = 0.00339053, No Iterations 1
DILUPBiCGStab:  Solving for Uy, Initial residual = 0.228272, Final residual = 0.00949855, No Iterations 1
DILUPBiCGStab:  Solving for Uz, Initial residual = 0.341365, Final residual = 0.0145678, No Iterations 1
DILUPBiCGStab:  Solving for h, Initial residual = 0.119278, Final residual = 0.0104134, No Iterations 1
Min/max T:294.677 301.454
GAMG:  Solving for p_rgh, Initial residual = 0.20296, Final residual = 0.00103173, No Iterations 6
GAMG:  Solving for p_rgh, Initial residual = 0.747408, Final residual = 0.00536032, No Iterations 2
GAMG:  Solving for p_rgh, Initial residual = 0.135607, Final residual = 0.000999638, No Iterations 3
time step continuity errors : sum local = 0.0117132, global = -0.00317233, cumulative = -0.00317233
ExecutionTime = 5.62213 s  ClockTime = 13 s

volFieldValue volAvgFinTemperature write:
    volAverage() of T = 301.253

volFieldValue volAvgHeaterTemperature write:
    volAverage() of T = 313.606

surfaceFieldValue averageTempHeaterFinInterface write:
    areaAverage(heater_to_fins) of T = 301.358

Region: fluid Courant Number mean: 1341.19 max: 105732
Region: fins Diffusion Number mean: 134.706 max: 143320
Region: heater Diffusion Number mean: 72.7343 max: 636.443
Time = 4s


Solving for solid region fins
GAMG:  Solving for e, Initial residual = 0.508012, Final residual = 0.0111968, No Iterations 1
Min/max T:301.071 303.856

Solving for solid region heater
GAMG:  Solving for e, Initial residual = 0.0774743, Final residual = 0.00172456, No Iterations 1
Min/max T:302.969 321.636

Solving for fluid region fluid
DILUPBiCGStab:  Solving for Ux, Initial residual = 0.0328011, Final residual = 0.00140605, No Iterations 1
DILUPBiCGStab:  Solving for Uy, Initial residual = 0.0740658, Final residual = 0.00314992, No Iterations 1
DILUPBiCGStab:  Solving for Uz, Initial residual = 0.0995897, Final residual = 0.00428431, No Iterations 1
DILUPBiCGStab:  Solving for h, Initial residual = 0.0305584, Final residual = 0.00282779, No Iterations 1
Min/max T:295.586 303.661
GAMG:  Solving for p_rgh, Initial residual = 0.192229, Final residual = 0.000886671, No Iterations 6
GAMG:  Solving for p_rgh, Initial residual = 0.478181, Final residual = 0.00334005, No Iterations 2
GAMG:  Solving for p_rgh, Initial residual = 0.0718862, Final residual = 0.000471545, No Iterations 3
time step continuity errors : sum local = 0.0041623, global = 0.000842145, cumulative = 0.000842145
ExecutionTime = 5.80029 s  ClockTime = 13 s

volFieldValue volAvgFinTemperature write:
    volAverage() of T = 303.411

volFieldValue volAvgHeaterTemperature write:
    volAverage() of T = 315.94

surfaceFieldValue averageTempHeaterFinInterface write:
    areaAverage(heater_to_fins) of T = 303.572

Region: fluid Courant Number mean: 1341.06 max: 106210
Region: fins Diffusion Number mean: 134.706 max: 143320
Region: heater Diffusion Number mean: 72.7343 max: 636.443
Time = 5s


Solving for solid region fins
GAMG:  Solving for e, Initial residual = 0.477057, Final residual = 0.0123365, No Iterations 1
Min/max T:303.258 306.056

Solving for solid region heater
GAMG:  Solving for e, Initial residual = 0.0737158, Final residual = 0.00103865, No Iterations 1
Min/max T:305.168 323.965

Solving for fluid region fluid
DILUPBiCGStab:  Solving for Ux, Initial residual = 0.0135582, Final residual = 0.000569135, No Iterations 1
DILUPBiCGStab:  Solving for Uy, Initial residual = 0.0361887, Final residual = 0.00143004, No Iterations 1
DILUPBiCGStab:  Solving for Uz, Initial residual = 0.0442122, Final residual = 0.00187457, No Iterations 1
DILUPBiCGStab:  Solving for h, Initial residual = 0.0151852, Final residual = 0.00141479, No Iterations 1
Min/max T:296.62 305.852
GAMG:  Solving for p_rgh, Initial residual = 0.129439, Final residual = 0.00116052, No Iterations 5
GAMG:  Solving for p_rgh, Initial residual = 0.325055, Final residual = 0.00223688, No Iterations 2
GAMG:  Solving for p_rgh, Initial residual = 0.0443831, Final residual = 0.000316418, No Iterations 3
time step continuity errors : sum local = 0.00183893, global = 0.000303724, cumulative = 0.000303724
ExecutionTime = 5.96502 s  ClockTime = 13 s

volFieldValue volAvgFinTemperature write:
    volAverage() of T = 305.552

volFieldValue volAvgHeaterTemperature write:
    volAverage() of T = 318.218

surfaceFieldValue averageTempHeaterFinInterface write:
    areaAverage(heater_to_fins) of T = 305.778

Region: fluid Courant Number mean: 1340.76 max: 103997
Region: fins Diffusion Number mean: 134.706 max: 143320
Region: heater Diffusion Number mean: 72.7343 max: 636.443
Time = 6s


Solving for solid region fins
GAMG:  Solving for e, Initial residual = 0.453317, Final residual = 0.0124216, No Iterations 1
Min/max T:305.443 308.245

Solving for solid region heater
GAMG:  Solving for e, Initial residual = 0.0716942, Final residual = 0.000637711, No Iterations 1
Min/max T:307.365 326.233

Solving for fluid region fluid
DILUPBiCGStab:  Solving for Ux, Initial residual = 0.00672072, Final residual = 0.000285412, No Iterations 1
DILUPBiCGStab:  Solving for Uy, Initial residual = 0.0174277, Final residual = 0.000709819, No Iterations 1
DILUPBiCGStab:  Solving for Uz, Initial residual = 0.0215561, Final residual = 0.000942658, No Iterations 1
DILUPBiCGStab:  Solving for h, Initial residual = 0.0101307, Final residual = 0.000874625, No Iterations 1
Min/max T:296.748 308.032
GAMG:  Solving for p_rgh, Initial residual = 0.0943172, Final residual = 0.000744623, No Iterations 5
GAMG:  Solving for p_rgh, Initial residual = 0.121007, Final residual = 0.000819291, No Iterations 2
GAMG:  Solving for p_rgh, Initial residual = 0.0158728, Final residual = 9.80479e-05, No Iterations 3
time step continuity errors : sum local = 0.000643864, global = -0.000207873, cumulative = -0.000207873
ExecutionTime = 6.15649 s  ClockTime = 14 s

volFieldValue volAvgFinTemperature write:
    volAverage() of T = 307.677

volFieldValue volAvgHeaterTemperature write:
    volAverage() of T = 320.455

surfaceFieldValue averageTempHeaterFinInterface write:
    areaAverage(heater_to_fins) of T = 307.973

Region: fluid Courant Number mean: 1340.52 max: 101677
Region: fins Diffusion Number mean: 134.706 max: 143320
Region: heater Diffusion Number mean: 72.7343 max: 636.443
Time = 7s


Solving for solid region fins
GAMG:  Solving for e, Initial residual = 0.430077, Final residual = 0.0123301, No Iterations 1
Min/max T:307.535 310.42

Solving for solid region heater
GAMG:  Solving for e, Initial residual = 0.070284, Final residual = 0.000393386, No Iterations 1
Min/max T:309.555 328.458

Solving for fluid region fluid
DILUPBiCGStab:  Solving for Ux, Initial residual = 0.00337623, Final residual = 0.000132635, No Iterations 1
DILUPBiCGStab:  Solving for Uy, Initial residual = 0.0103928, Final residual = 0.000342154, No Iterations 1
DILUPBiCGStab:  Solving for Uz, Initial residual = 0.0105794, Final residual = 0.000397033, No Iterations 1
DILUPBiCGStab:  Solving for h, Initial residual = 0.0075879, Final residual = 0.000611356, No Iterations 1
Min/max T:296.861 310.199
GAMG:  Solving for p_rgh, Initial residual = 0.0490411, Final residual = 0.000294171, No Iterations 5
GAMG:  Solving for p_rgh, Initial residual = 0.0553472, Final residual = 0.000386671, No Iterations 2
GAMG:  Solving for p_rgh, Initial residual = 0.00725117, Final residual = 4.28897e-05, No Iterations 3
time step continuity errors : sum local = 0.000253546, global = 7.87989e-05, cumulative = 7.87989e-05
ExecutionTime = 6.32609 s  ClockTime = 14 s

volFieldValue volAvgFinTemperature write:
    volAverage() of T = 309.787

volFieldValue volAvgHeaterTemperature write:
    volAverage() of T = 322.662

surfaceFieldValue averageTempHeaterFinInterface write:
    areaAverage(heater_to_fins) of T = 310.155

Region: fluid Courant Number mean: 1340.31 max: 98789.9
Region: fins Diffusion Number mean: 134.706 max: 143320
Region: heater Diffusion Number mean: 72.7343 max: 636.443
Time = 8s


Solving for solid region fins
GAMG:  Solving for e, Initial residual = 0.407919, Final residual = 0.0119943, No Iterations 1
Min/max T:309.608 312.58

Solving for solid region heater
GAMG:  Solving for e, Initial residual = 0.0692416, Final residual = 0.000244571, No Iterations 1
Min/max T:311.735 330.652

Solving for fluid region fluid
DILUPBiCGStab:  Solving for Ux, Initial residual = 0.00275657, Final residual = 0.000117604, No Iterations 1
DILUPBiCGStab:  Solving for Uy, Initial residual = 0.00889248, Final residual = 0.000330393, No Iterations 1
DILUPBiCGStab:  Solving for Uz, Initial residual = 0.0103464, Final residual = 0.000435552, No Iterations 1
DILUPBiCGStab:  Solving for h, Initial residual = 0.00603608, Final residual = 0.000445585, No Iterations 1
Min/max T:296.854 312.353
GAMG:  Solving for p_rgh, Initial residual = 0.0377551, Final residual = 0.000341563, No Iterations 4
GAMG:  Solving for p_rgh, Initial residual = 0.0209016, Final residual = 0.000165595, No Iterations 2
GAMG:  Solving for p_rgh, Initial residual = 0.00283215, Final residual = 2.46959e-05, No Iterations 3
time step continuity errors : sum local = 0.000152348, global = -3.92434e-06, cumulative = -3.92434e-06
ExecutionTime = 6.4879 s  ClockTime = 14 s

volFieldValue volAvgFinTemperature write:
    volAverage() of T = 311.881

volFieldValue volAvgHeaterTemperature write:
    volAverage() of T = 324.844

surfaceFieldValue averageTempHeaterFinInterface write:
    areaAverage(heater_to_fins) of T = 312.323

Region: fluid Courant Number mean: 1340.1 max: 95802.9
Region: fins Diffusion Number mean: 134.706 max: 143320
Region: heater Diffusion Number mean: 72.7343 max: 636.443
Time = 9s


Solving for solid region fins
GAMG:  Solving for e, Initial residual = 0.386762, Final residual = 0.0115772, No Iterations 1
Min/max T:311.665 314.727

Solving for solid region heater
GAMG:  Solving for e, Initial residual = 0.0684126, Final residual = 0.000153441, No Iterations 1
Min/max T:313.902 332.819

Solving for fluid region fluid
DILUPBiCGStab:  Solving for Ux, Initial residual = 0.00232756, Final residual = 9.78746e-05, No Iterations 1
DILUPBiCGStab:  Solving for Uy, Initial residual = 0.00724609, Final residual = 0.000266281, No Iterations 1
DILUPBiCGStab:  Solving for Uz, Initial residual = 0.00787769, Final residual = 0.000325572, No Iterations 1
DILUPBiCGStab:  Solving for h, Initial residual = 0.00505802, Final residual = 0.000355024, No Iterations 1
Min/max T:296.86 314.492
GAMG:  Solving for p_rgh, Initial residual = 0.0284652, Final residual = 0.000166794, No Iterations 4
GAMG:  Solving for p_rgh, Initial residual = 0.0103402, Final residual = 8.14428e-05, No Iterations 2
GAMG:  Solving for p_rgh, Initial residual = 0.00147405, Final residual = 1.44408e-05, No Iterations 3
time step continuity errors : sum local = 8.73464e-05, global = 5.62142e-06, cumulative = 5.62142e-06
ExecutionTime = 6.65011 s  ClockTime = 14 s

volFieldValue volAvgFinTemperature write:
    volAverage() of T = 313.961

volFieldValue volAvgHeaterTemperature write:
    volAverage() of T = 327.004

surfaceFieldValue averageTempHeaterFinInterface write:
    areaAverage(heater_to_fins) of T = 314.478

Region: fluid Courant Number mean: 1339.89 max: 92596.7
Region: fins Diffusion Number mean: 134.706 max: 143320
Region: heater Diffusion Number mean: 72.7343 max: 636.443
Time = 10s


Solving for solid region fins
GAMG:  Solving for e, Initial residual = 0.366901, Final residual = 0.0110879, No Iterations 1
Min/max T:313.706 316.858

Solving for solid region heater
GAMG:  Solving for e, Initial residual = 0.0677166, Final residual = 9.83571e-05, No Iterations 1
Min/max T:316.056 334.966

Solving for fluid region fluid
DILUPBiCGStab:  Solving for Ux, Initial residual = 0.0021785, Final residual = 9.38589e-05, No Iterations 1
DILUPBiCGStab:  Solving for Uy, Initial residual = 0.00678626, Final residual = 0.00026401, No Iterations 1
DILUPBiCGStab:  Solving for Uz, Initial residual = 0.00775451, Final residual = 0.000331888, No Iterations 1
DILUPBiCGStab:  Solving for h, Initial residual = 0.00437972, Final residual = 0.000299997, No Iterations 1
Min/max T:296.808 316.617
GAMG:  Solving for p_rgh, Initial residual = 0.0261449, Final residual = 0.000213787, No Iterations 3
GAMG:  Solving for p_rgh, Initial residual = 0.00563954, Final residual = 3.72863e-05, No Iterations 3
GAMG:  Solving for p_rgh, Initial residual = 0.00110143, Final residual = 9.04094e-06, No Iterations 3
time step continuity errors : sum local = 5.52787e-05, global = 8.7232e-06, cumulative = 8.7232e-06
ExecutionTime = 6.81779 s  ClockTime = 15 s

volFieldValue volAvgFinTemperature write:
    volAverage() of T = 316.025

volFieldValue volAvgHeaterTemperature write:
    volAverage() of T = 329.146

surfaceFieldValue averageTempHeaterFinInterface write:
    areaAverage(heater_to_fins) of T = 316.618

Region: fluid Courant Number mean: 1339.69 max: 89248.7
Region: fins Diffusion Number mean: 134.706 max: 143320
Region: heater Diffusion Number mean: 72.7343 max: 636.443
Time = 11s


Solving for solid region fins
GAMG:  Solving for e, Initial residual = 0.348099, Final residual = 0.0105705, No Iterations 1
Min/max T:315.731 318.975

Solving for solid region heater
GAMG:  Solving for e, Initial residual = 0.0671059, Final residual = 6.72764e-05, No Iterations 1
Min/max T:318.197 337.093

Solving for fluid region fluid
DILUPBiCGStab:  Solving for Ux, Initial residual = 0.002043, Final residual = 8.81359e-05, No Iterations 1
DILUPBiCGStab:  Solving for Uy, Initial residual = 0.00615659, Final residual = 0.000244348, No Iterations 1
DILUPBiCGStab:  Solving for Uz, Initial residual = 0.0068716, Final residual = 0.000296616, No Iterations 1
DILUPBiCGStab:  Solving for h, Initial residual = 0.00387798, Final residual = 0.000258166, No Iterations 1
Min/max T:296.781 318.733
GAMG:  Solving for p_rgh, Initial residual = 0.0216973, Final residual = 0.000111177, No Iterations 3
GAMG:  Solving for p_rgh, Initial residual = 0.00373857, Final residual = 1.91336e-05, No Iterations 3
GAMG:  Solving for p_rgh, Initial residual = 0.000680553, Final residual = 5.03867e-06, No Iterations 3
time step continuity errors : sum local = 3.07978e-05, global = 5.59229e-06, cumulative = 5.59229e-06
ExecutionTime = 6.99537 s  ClockTime = 15 s

volFieldValue volAvgFinTemperature write:
    volAverage() of T = 318.076

volFieldValue volAvgHeaterTemperature write:
    volAverage() of T = 331.271

surfaceFieldValue averageTempHeaterFinInterface write:
    areaAverage(heater_to_fins) of T = 318.743

Region: fluid Courant Number mean: 1339.5 max: 85745.3
Region: fins Diffusion Number mean: 134.706 max: 143320
Region: heater Diffusion Number mean: 72.7343 max: 636.443
Time = 12s


Solving for solid region fins
GAMG:  Solving for e, Initial residual = 0.330517, Final residual = 0.0100525, No Iterations 1
Min/max T:317.742 321.078

Solving for solid region heater
GAMG:  Solving for e, Initial residual = 0.0665491, Final residual = 5.06146e-05, No Iterations 1
Min/max T:320.323 339.203

Solving for fluid region fluid
DILUPBiCGStab:  Solving for Ux, Initial residual = 0.00193218, Final residual = 8.41018e-05, No Iterations 1
DILUPBiCGStab:  Solving for Uy, Initial residual = 0.0057784, Final residual = 0.000233444, No Iterations 1
DILUPBiCGStab:  Solving for Uz, Initial residual = 0.006493, Final residual = 0.000282618, No Iterations 1
DILUPBiCGStab:  Solving for h, Initial residual = 0.00350165, Final residual = 0.000225243, No Iterations 1
Min/max T:296.761 320.836
GAMG:  Solving for p_rgh, Initial residual = 0.0198984, Final residual = 9.37658e-05, No Iterations 3
GAMG:  Solving for p_rgh, Initial residual = 0.00336831, Final residual = 1.71432e-05, No Iterations 3
GAMG:  Solving for p_rgh, Initial residual = 0.000610577, Final residual = 4.95976e-06, No Iterations 3
time step continuity errors : sum local = 3.04208e-05, global = 4.49749e-06, cumulative = 4.49749e-06
ExecutionTime = 7.17647 s  ClockTime = 15 s

volFieldValue volAvgFinTemperature write:
    volAverage() of T = 320.112

volFieldValue volAvgHeaterTemperature write:
    volAverage() of T = 333.38

surfaceFieldValue averageTempHeaterFinInterface write:
    areaAverage(heater_to_fins) of T = 320.854

Region: fluid Courant Number mean: 1339.32 max: 82060.2
Region: fins Diffusion Number mean: 134.706 max: 143320
Region: heater Diffusion Number mean: 72.7343 max: 636.443
Time = 13s


Solving for solid region fins
GAMG:  Solving for e, Initial residual = 0.314391, Final residual = 0.00955508, No Iterations 1
Min/max T:319.738 323.167

Solving for solid region heater
GAMG:  Solving for e, Initial residual = 0.0660281, Final residual = 4.15312e-05, No Iterations 1
Min/max T:322.435 341.298

Solving for fluid region fluid
DILUPBiCGStab:  Solving for Ux, Initial residual = 0.00184103, Final residual = 8.04818e-05, No Iterations 1
DILUPBiCGStab:  Solving for Uy, Initial residual = 0.00541163, Final residual = 0.000221251, No Iterations 1
DILUPBiCGStab:  Solving for Uz, Initial residual = 0.0060266, Final residual = 0.000262922, No Iterations 1
DILUPBiCGStab:  Solving for h, Initial residual = 0.00320417, Final residual = 0.000203107, No Iterations 1
Min/max T:296.743 322.929
GAMG:  Solving for p_rgh, Initial residual = 0.0176053, Final residual = 0.000171812, No Iterations 2
GAMG:  Solving for p_rgh, Initial residual = 0.00282274, Final residual = 1.83776e-05, No Iterations 3
GAMG:  Solving for p_rgh, Initial residual = 0.000623083, Final residual = 4.65733e-06, No Iterations 3
time step continuity errors : sum local = 2.86372e-05, global = 5.0884e-06, cumulative = 5.0884e-06
ExecutionTime = 7.3433 s  ClockTime = 16 s

volFieldValue volAvgFinTemperature write:
    volAverage() of T = 322.135

volFieldValue volAvgHeaterTemperature write:
    volAverage() of T = 335.474

surfaceFieldValue averageTempHeaterFinInterface write:
    areaAverage(heater_to_fins) of T = 322.951

Region: fluid Courant Number mean: 1339.14 max: 78135.2
Region: fins Diffusion Number mean: 134.706 max: 143320
Region: heater Diffusion Number mean: 72.7343 max: 636.443
Time = 14s


Solving for solid region fins
GAMG:  Solving for e, Initial residual = 0.299667, Final residual = 0.00908552, No Iterations 1
Min/max T:321.721 325.241

Solving for solid region heater
GAMG:  Solving for e, Initial residual = 0.0655304, Final residual = 3.64459e-05, No Iterations 1
Min/max T:324.534 343.377

Solving for fluid region fluid
DILUPBiCGStab:  Solving for Ux, Initial residual = 0.00176271, Final residual = 7.72854e-05, No Iterations 1
DILUPBiCGStab:  Solving for Uy, Initial residual = 0.00513934, Final residual = 0.000211881, No Iterations 1
DILUPBiCGStab:  Solving for Uz, Initial residual = 0.005681, Final residual = 0.000247831, No Iterations 1
DILUPBiCGStab:  Solving for h, Initial residual = 0.00296476, Final residual = 0.000189991, No Iterations 1
Min/max T:296.726 325.01
GAMG:  Solving for p_rgh, Initial residual = 0.0162251, Final residual = 6.37519e-05, No Iterations 3
GAMG:  Solving for p_rgh, Initial residual = 0.00275193, Final residual = 2.72606e-05, No Iterations 2
GAMG:  Solving for p_rgh, Initial residual = 0.000467556, Final residual = 2.89887e-06, No Iterations 4
time step continuity errors : sum local = 1.78693e-05, global = 3.5365e-06, cumulative = 3.5365e-06
ExecutionTime = 7.50789 s  ClockTime = 16 s

volFieldValue volAvgFinTemperature write:
    volAverage() of T = 324.144

volFieldValue volAvgHeaterTemperature write:
    volAverage() of T = 337.553

surfaceFieldValue averageTempHeaterFinInterface write:
    areaAverage(heater_to_fins) of T = 325.034

Region: fluid Courant Number mean: 1338.98 max: 73932.1
Region: fins Diffusion Number mean: 134.706 max: 143320
Region: heater Diffusion Number mean: 72.7343 max: 636.443
Time = 15s


Solving for solid region fins
GAMG:  Solving for e, Initial residual = 0.286172, Final residual = 0.00864265, No Iterations 1
Min/max T:323.69 327.302

Solving for solid region heater
GAMG:  Solving for e, Initial residual = 0.0650486, Final residual = 3.34076e-05, No Iterations 1
Min/max T:326.618 345.442

Solving for fluid region fluid
DILUPBiCGStab:  Solving for Ux, Initial residual = 0.00169463, Final residual = 7.44503e-05, No Iterations 1
DILUPBiCGStab:  Solving for Uy, Initial residual = 0.00490254, Final residual = 0.000203491, No Iterations 1
DILUPBiCGStab:  Solving for Uz, Initial residual = 0.00534993, Final residual = 0.000232996, No Iterations 1
DILUPBiCGStab:  Solving for h, Initial residual = 0.00276799, Final residual = 0.000178837, No Iterations 1
Min/max T:296.708 327.077
GAMG:  Solving for p_rgh, Initial residual = 0.0145185, Final residual = 4.80506e-05, No Iterations 3
GAMG:  Solving for p_rgh, Initial residual = 0.00249995, Final residual = 2.31798e-05, No Iterations 2
GAMG:  Solving for p_rgh, Initial residual = 0.00042402, Final residual = 2.4401e-06, No Iterations 4
time step continuity errors : sum local = 1.50838e-05, global = 3.11413e-06, cumulative = 3.11413e-06
ExecutionTime = 7.67256 s  ClockTime = 16 s

volFieldValue volAvgFinTemperature write:
    volAverage() of T = 326.14

volFieldValue volAvgHeaterTemperature write:
    volAverage() of T = 339.618

surfaceFieldValue averageTempHeaterFinInterface write:
    areaAverage(heater_to_fins) of T = 327.102

Region: fluid Courant Number mean: 1338.82 max: 69525.6
Region: fins Diffusion Number mean: 134.706 max: 143320
Region: heater Diffusion Number mean: 72.7343 max: 636.443
Time = 16s


Solving for solid region fins
GAMG:  Solving for e, Initial residual = 0.273772, Final residual = 0.00823432, No Iterations 1
Min/max T:325.646 329.348

Solving for solid region heater
GAMG:  Solving for e, Initial residual = 0.0645782, Final residual = 3.14678e-05, No Iterations 1
Min/max T:328.688 347.492

Solving for fluid region fluid
DILUPBiCGStab:  Solving for Ux, Initial residual = 0.00163323, Final residual = 7.19197e-05, No Iterations 1
DILUPBiCGStab:  Solving for Uy, Initial residual = 0.00469196, Final residual = 0.000195884, No Iterations 1
DILUPBiCGStab:  Solving for Uz, Initial residual = 0.00506758, Final residual = 0.000220349, No Iterations 1
DILUPBiCGStab:  Solving for h, Initial residual = 0.00259663, Final residual = 0.000167692, No Iterations 1
Min/max T:296.692 329.131
GAMG:  Solving for p_rgh, Initial residual = 0.0137338, Final residual = 5.34939e-05, No Iterations 3
GAMG:  Solving for p_rgh, Initial residual = 0.00239744, Final residual = 1.19331e-05, No Iterations 3
GAMG:  Solving for p_rgh, Initial residual = 0.000433481, Final residual = 3.13259e-06, No Iterations 3
time step continuity errors : sum local = 1.94216e-05, global = 3.86367e-06, cumulative = 3.86367e-06
ExecutionTime = 7.83 s  ClockTime = 17 s

volFieldValue volAvgFinTemperature write:
    volAverage() of T = 328.123

volFieldValue volAvgHeaterTemperature write:
    volAverage() of T = 341.669

surfaceFieldValue averageTempHeaterFinInterface write:
    areaAverage(heater_to_fins) of T = 329.157

Region: fluid Courant Number mean: 1338.66 max: 64943.1
Region: fins Diffusion Number mean: 134.706 max: 143320
Region: heater Diffusion Number mean: 72.7343 max: 636.443
Time = 17s


Solving for solid region fins
GAMG:  Solving for e, Initial residual = 0.262341, Final residual = 0.00785635, No Iterations 1
Min/max T:327.59 331.382

Solving for solid region heater
GAMG:  Solving for e, Initial residual = 0.0641163, Final residual = 3.02228e-05, No Iterations 1
Min/max T:330.745 349.529

Solving for fluid region fluid
DILUPBiCGStab:  Solving for Ux, Initial residual = 0.00157834, Final residual = 6.9656e-05, No Iterations 1
DILUPBiCGStab:  Solving for Uy, Initial residual = 0.00451137, Final residual = 0.000189168, No Iterations 1
DILUPBiCGStab:  Solving for Uz, Initial residual = 0.00481438, Final residual = 0.000208847, No Iterations 1
DILUPBiCGStab:  Solving for h, Initial residual = 0.00245351, Final residual = 0.000157735, No Iterations 1
Min/max T:296.676 331.171
GAMG:  Solving for p_rgh, Initial residual = 0.0131202, Final residual = 5.09329e-05, No Iterations 3
GAMG:  Solving for p_rgh, Initial residual = 0.00229287, Final residual = 2.28526e-05, No Iterations 2
GAMG:  Solving for p_rgh, Initial residual = 0.000394344, Final residual = 2.24362e-06, No Iterations 4
time step continuity errors : sum local = 1.39381e-05, global = 2.55111e-06, cumulative = 2.55111e-06
ExecutionTime = 8.00992 s  ClockTime = 17 s

volFieldValue volAvgFinTemperature write:
    volAverage() of T = 330.093

volFieldValue volAvgHeaterTemperature write:
    volAverage() of T = 343.706

surfaceFieldValue averageTempHeaterFinInterface write:
    areaAverage(heater_to_fins) of T = 331.198

Region: fluid Courant Number mean: 1338.51 max: 60176.7
Region: fins Diffusion Number mean: 134.706 max: 143320
Region: heater Diffusion Number mean: 72.7343 max: 636.443
Time = 18s


Solving for solid region fins
GAMG:  Solving for e, Initial residual = 0.251747, Final residual = 0.00750628, No Iterations 1
Min/max T:329.52 333.401

Solving for solid region heater
GAMG:  Solving for e, Initial residual = 0.063662, Final residual = 2.93977e-05, No Iterations 1
Min/max T:332.787 351.552

Solving for fluid region fluid
DILUPBiCGStab:  Solving for Ux, Initial residual = 0.00152644, Final residual = 6.74782e-05, No Iterations 1
DILUPBiCGStab:  Solving for Uy, Initial residual = 0.00435423, Final residual = 0.000182737, No Iterations 1
DILUPBiCGStab:  Solving for Uz, Initial residual = 0.00458717, Final residual = 0.000198665, No Iterations 1
DILUPBiCGStab:  Solving for h, Initial residual = 0.00233637, Final residual = 0.000144688, No Iterations 1
Min/max T:296.66 333.197
GAMG:  Solving for p_rgh, Initial residual = 0.0126367, Final residual = 5.44311e-05, No Iterations 3
GAMG:  Solving for p_rgh, Initial residual = 0.00227764, Final residual = 2.2183e-05, No Iterations 2
GAMG:  Solving for p_rgh, Initial residual = 0.000382754, Final residual = 2.14189e-06, No Iterations 4
time step continuity errors : sum local = 1.33471e-05, global = 2.38638e-06, cumulative = 2.38638e-06
ExecutionTime = 8.20488 s  ClockTime = 17 s

volFieldValue volAvgFinTemperature write:
    volAverage() of T = 332.051

volFieldValue volAvgHeaterTemperature write:
    volAverage() of T = 345.729

surfaceFieldValue averageTempHeaterFinInterface write:
    areaAverage(heater_to_fins) of T = 333.226

Region: fluid Courant Number mean: 1338.37 max: 55213.4
Region: fins Diffusion Number mean: 134.706 max: 143320
Region: heater Diffusion Number mean: 72.7343 max: 636.443
Time = 19s


Solving for solid region fins
GAMG:  Solving for e, Initial residual = 0.241881, Final residual = 0.00719248, No Iterations 1
Min/max T:331.438 335.408

Solving for solid region heater
GAMG:  Solving for e, Initial residual = 0.0632093, Final residual = 2.89505e-05, No Iterations 1
Min/max T:334.798 353.562

Solving for fluid region fluid
DILUPBiCGStab:  Solving for Ux, Initial residual = 0.00148095, Final residual = 6.55923e-05, No Iterations 1
DILUPBiCGStab:  Solving for Uy, Initial residual = 0.00421659, Final residual = 0.000177002, No Iterations 1
DILUPBiCGStab:  Solving for Uz, Initial residual = 0.00437933, Final residual = 0.000189564, No Iterations 1
DILUPBiCGStab:  Solving for h, Initial residual = 0.00223339, Final residual = 0.000137507, No Iterations 1
Min/max T:296.646 335.21
GAMG:  Solving for p_rgh, Initial residual = 0.0115525, Final residual = 5.5072e-05, No Iterations 3
GAMG:  Solving for p_rgh, Initial residual = 0.00223739, Final residual = 2.21862e-05, No Iterations 2
GAMG:  Solving for p_rgh, Initial residual = 0.000360064, Final residual = 2.05835e-06, No Iterations 4
time step continuity errors : sum local = 1.28602e-05, global = 2.57175e-06, cumulative = 2.57175e-06
ExecutionTime = 8.37674 s  ClockTime = 18 s

volFieldValue volAvgFinTemperature write:
    volAverage() of T = 333.995

volFieldValue volAvgHeaterTemperature write:
    volAverage() of T = 347.739

surfaceFieldValue averageTempHeaterFinInterface write:
    areaAverage(heater_to_fins) of T = 335.24

Region: fluid Courant Number mean: 1338.22 max: 50080
Region: fins Diffusion Number mean: 134.706 max: 143320
Region: heater Diffusion Number mean: 72.7343 max: 636.443
Time = 20s


Solving for solid region fins
GAMG:  Solving for e, Initial residual = 0.232699, Final residual = 0.00689466, No Iterations 1
Min/max T:333.343 337.401

Solving for solid region heater
GAMG:  Solving for e, Initial residual = 0.0627611, Final residual = 2.86162e-05, No Iterations 1
Min/max T:336.785 355.558

Solving for fluid region fluid
DILUPBiCGStab:  Solving for Ux, Initial residual = 0.00143838, Final residual = 6.37545e-05, No Iterations 1
DILUPBiCGStab:  Solving for Uy, Initial residual = 0.00405424, Final residual = 0.000169966, No Iterations 1
DILUPBiCGStab:  Solving for Uz, Initial residual = 0.00417155, Final residual = 0.000180212, No Iterations 1
DILUPBiCGStab:  Solving for h, Initial residual = 0.00213021, Final residual = 0.000133436, No Iterations 1
Min/max T:296.633 337.21
GAMG:  Solving for p_rgh, Initial residual = 0.0107499, Final residual = 4.33212e-05, No Iterations 3
GAMG:  Solving for p_rgh, Initial residual = 0.00185152, Final residual = 1.77698e-05, No Iterations 2
GAMG:  Solving for p_rgh, Initial residual = 0.000290434, Final residual = 1.62516e-06, No Iterations 4
time step continuity errors : sum local = 1.0181e-05, global = 1.68588e-06, cumulative = 1.68588e-06
ExecutionTime = 8.54464 s  ClockTime = 18 s

volFieldValue volAvgFinTemperature write:
    volAverage() of T = 335.927

volFieldValue volAvgHeaterTemperature write:
    volAverage() of T = 349.735

surfaceFieldValue averageTempHeaterFinInterface write:
    areaAverage(heater_to_fins) of T = 337.241

Region: fluid Courant Number mean: 1338.06 max: 45387.8
Region: fins Diffusion Number mean: 134.706 max: 143320
Region: heater Diffusion Number mean: 72.7343 max: 636.443
Time = 21s


Solving for solid region fins
GAMG:  Solving for e, Initial residual = 0.224139, Final residual = 0.0066226, No Iterations 1
Min/max T:335.236 339.38

Solving for solid region heater
GAMG:  Solving for e, Initial residual = 0.0623173, Final residual = 2.83309e-05, No Iterations 1
Min/max T:338.759 357.541

Solving for fluid region fluid
DILUPBiCGStab:  Solving for Ux, Initial residual = 0.0014001, Final residual = 6.20201e-05, No Iterations 1
DILUPBiCGStab:  Solving for Uy, Initial residual = 0.00392996, Final residual = 0.000164873, No Iterations 1
DILUPBiCGStab:  Solving for Uz, Initial residual = 0.00400018, Final residual = 0.000172341, No Iterations 1
DILUPBiCGStab:  Solving for h, Initial residual = 0.00204126, Final residual = 0.000129779, No Iterations 1
Min/max T:296.621 339.196
GAMG:  Solving for p_rgh, Initial residual = 0.0102398, Final residual = 4.01351e-05, No Iterations 3
GAMG:  Solving for p_rgh, Initial residual = 0.00178588, Final residual = 1.69219e-05, No Iterations 2
GAMG:  Solving for p_rgh, Initial residual = 0.000277432, Final residual = 1.51377e-06, No Iterations 4
time step continuity errors : sum local = 9.50547e-06, global = 1.42837e-06, cumulative = 1.42837e-06
ExecutionTime = 8.71612 s  ClockTime = 18 s

volFieldValue volAvgFinTemperature write:
    volAverage() of T = 337.847

volFieldValue volAvgHeaterTemperature write:
    volAverage() of T = 351.719

surfaceFieldValue averageTempHeaterFinInterface write:
    areaAverage(heater_to_fins) of T = 339.229

Region: fluid Courant Number mean: 1337.91 max: 44239
Region: fins Diffusion Number mean: 134.706 max: 143320
Region: heater Diffusion Number mean: 72.7343 max: 636.443
Time = 22s


Solving for solid region fins
GAMG:  Solving for e, Initial residual = 0.216136, Final residual = 0.00637219, No Iterations 1
Min/max T:337.117 341.347

Solving for solid region heater
GAMG:  Solving for e, Initial residual = 0.0618781, Final residual = 2.80622e-05, No Iterations 1
Min/max T:340.72 359.51

Solving for fluid region fluid
DILUPBiCGStab:  Solving for Ux, Initial residual = 0.00136631, Final residual = 6.0491e-05, No Iterations 1
DILUPBiCGStab:  Solving for Uy, Initial residual = 0.00380964, Final residual = 0.000159995, No Iterations 1
DILUPBiCGStab:  Solving for Uz, Initial residual = 0.00383174, Final residual = 0.000164722, No Iterations 1
DILUPBiCGStab:  Solving for h, Initial residual = 0.00195964, Final residual = 0.000125893, No Iterations 1
Min/max T:296.61 341.169
GAMG:  Solving for p_rgh, Initial residual = 0.00987654, Final residual = 3.82753e-05, No Iterations 3
GAMG:  Solving for p_rgh, Initial residual = 0.00169767, Final residual = 1.63772e-05, No Iterations 2
GAMG:  Solving for p_rgh, Initial residual = 0.000266411, Final residual = 1.44079e-06, No Iterations 4
time step continuity errors : sum local = 9.06994e-06, global = 1.27465e-06, cumulative = 1.27465e-06
ExecutionTime = 8.87747 s  ClockTime = 19 s

volFieldValue volAvgFinTemperature write:
    volAverage() of T = 339.753

volFieldValue volAvgHeaterTemperature write:
    volAverage() of T = 353.689

surfaceFieldValue averageTempHeaterFinInterface write:
    areaAverage(heater_to_fins) of T = 341.203

Region: fluid Courant Number mean: 1337.76 max: 43338.3
Region: fins Diffusion Number mean: 134.706 max: 143320
Region: heater Diffusion Number mean: 72.7343 max: 636.443
Time = 23s


Solving for solid region fins
GAMG:  Solving for e, Initial residual = 0.208656, Final residual = 0.0061421, No Iterations 1
Min/max T:338.985 343.316

Solving for solid region heater
GAMG:  Solving for e, Initial residual = 0.0614432, Final residual = 2.78028e-05, No Iterations 1
Min/max T:342.668 361.467

Solving for fluid region fluid
DILUPBiCGStab:  Solving for Ux, Initial residual = 0.00133536, Final residual = 5.90652e-05, No Iterations 1
DILUPBiCGStab:  Solving for Uy, Initial residual = 0.00370435, Final residual = 0.00015587, No Iterations 1
DILUPBiCGStab:  Solving for Uz, Initial residual = 0.0036776, Final residual = 0.00015782, No Iterations 1
DILUPBiCGStab:  Solving for h, Initial residual = 0.00188773, Final residual = 0.000122044, No Iterations 1
Min/max T:296.6 343.129
GAMG:  Solving for p_rgh, Initial residual = 0.00976548, Final residual = 3.88474e-05, No Iterations 3
GAMG:  Solving for p_rgh, Initial residual = 0.00172723, Final residual = 1.63504e-05, No Iterations 2
GAMG:  Solving for p_rgh, Initial residual = 0.000278266, Final residual = 1.45673e-06, No Iterations 4
time step continuity errors : sum local = 9.19483e-06, global = 1.19364e-06, cumulative = 1.19364e-06
ExecutionTime = 9.04594 s  ClockTime = 19 s

volFieldValue volAvgFinTemperature write:
    volAverage() of T = 341.648

volFieldValue volAvgHeaterTemperature write:
    volAverage() of T = 355.646

surfaceFieldValue averageTempHeaterFinInterface write:
    areaAverage(heater_to_fins) of T = 343.164

Region: fluid Courant Number mean: 1337.61 max: 42621.7
Region: fins Diffusion Number mean: 134.706 max: 143320
Region: heater Diffusion Number mean: 72.7343 max: 636.443
Time = 24s


Solving for solid region fins
GAMG:  Solving for e, Initial residual = 0.201637, Final residual = 0.00593113, No Iterations 1
Min/max T:340.841 345.272

Solving for solid region heater
GAMG:  Solving for e, Initial residual = 0.0610117, Final residual = 2.75626e-05, No Iterations 1
Min/max T:344.603 363.411

Solving for fluid region fluid
DILUPBiCGStab:  Solving for Ux, Initial residual = 0.00130649, Final residual = 5.77332e-05, No Iterations 1
DILUPBiCGStab:  Solving for Uy, Initial residual = 0.00360884, Final residual = 0.000152023, No Iterations 1
DILUPBiCGStab:  Solving for Uz, Initial residual = 0.00353229, Final residual = 0.000151384, No Iterations 1
DILUPBiCGStab:  Solving for h, Initial residual = 0.00182441, Final residual = 0.000118028, No Iterations 1
Min/max T:296.591 345.076
GAMG:  Solving for p_rgh, Initial residual = 0.00955259, Final residual = 3.88937e-05, No Iterations 3
GAMG:  Solving for p_rgh, Initial residual = 0.00175068, Final residual = 1.62562e-05, No Iterations 2
GAMG:  Solving for p_rgh, Initial residual = 0.000282197, Final residual = 1.44234e-06, No Iterations 4
time step continuity errors : sum local = 9.12945e-06, global = 1.14967e-06, cumulative = 1.14967e-06
ExecutionTime = 9.22901 s  ClockTime = 19 s

volFieldValue volAvgFinTemperature write:
    volAverage() of T = 343.529

volFieldValue volAvgHeaterTemperature write:
    volAverage() of T = 357.59

surfaceFieldValue averageTempHeaterFinInterface write:
    areaAverage(heater_to_fins) of T = 345.113

Region: fluid Courant Number mean: 1337.45 max: 42134.1
Region: fins Diffusion Number mean: 134.706 max: 143320
Region: heater Diffusion Number mean: 72.7343 max: 636.443
Time = 25s


Solving for solid region fins
GAMG:  Solving for e, Initial residual = 0.195042, Final residual = 0.00573613, No Iterations 1
Min/max T:342.685 347.215

Solving for solid region heater
GAMG:  Solving for e, Initial residual = 0.0605843, Final residual = 2.7344e-05, No Iterations 1
Min/max T:346.525 365.342

Solving for fluid region fluid
DILUPBiCGStab:  Solving for Ux, Initial residual = 0.00128006, Final residual = 5.65298e-05, No Iterations 1
DILUPBiCGStab:  Solving for Uy, Initial residual = 0.00352321, Final residual = 0.000148422, No Iterations 1
DILUPBiCGStab:  Solving for Uz, Initial residual = 0.00339692, Final residual = 0.000145508, No Iterations 1
DILUPBiCGStab:  Solving for h, Initial residual = 0.00176587, Final residual = 0.000114553, No Iterations 1
Min/max T:296.583 347.011
GAMG:  Solving for p_rgh, Initial residual = 0.00957343, Final residual = 3.90155e-05, No Iterations 3
GAMG:  Solving for p_rgh, Initial residual = 0.00171972, Final residual = 8.54245e-06, No Iterations 3
GAMG:  Solving for p_rgh, Initial residual = 0.000305555, Final residual = 2.11409e-06, No Iterations 3
time step continuity errors : sum local = 1.34104e-05, global = 1.35864e-06, cumulative = 1.35864e-06
ExecutionTime = 9.41866 s  ClockTime = 20 s

volFieldValue volAvgFinTemperature write:
    volAverage() of T = 345.399

volFieldValue volAvgHeaterTemperature write:
    volAverage() of T = 359.522

surfaceFieldValue averageTempHeaterFinInterface write:
    areaAverage(heater_to_fins) of T = 347.049

Region: fluid Courant Number mean: 1337.3 max: 41991.3
Region: fins Diffusion Number mean: 134.706 max: 143320
Region: heater Diffusion Number mean: 72.7343 max: 636.443
Time = 26s


Solving for solid region fins
GAMG:  Solving for e, Initial residual = 0.188837, Final residual = 0.00556128, No Iterations 1
Min/max T:344.516 349.146

Solving for solid region heater
GAMG:  Solving for e, Initial residual = 0.0601596, Final residual = 2.71741e-05, No Iterations 1
Min/max T:348.435 367.26

Solving for fluid region fluid
DILUPBiCGStab:  Solving for Ux, Initial residual = 0.00125542, Final residual = 5.53845e-05, No Iterations 1
DILUPBiCGStab:  Solving for Uy, Initial residual = 0.00344623, Final residual = 0.000145169, No Iterations 1
DILUPBiCGStab:  Solving for Uz, Initial residual = 0.00327155, Final residual = 0.000139923, No Iterations 1
DILUPBiCGStab:  Solving for h, Initial residual = 0.00171154, Final residual = 0.000110629, No Iterations 1
Min/max T:296.577 348.933
GAMG:  Solving for p_rgh, Initial residual = 0.00930748, Final residual = 3.70178e-05, No Iterations 3
GAMG:  Solving for p_rgh, Initial residual = 0.00175182, Final residual = 1.72641e-05, No Iterations 2
GAMG:  Solving for p_rgh, Initial residual = 0.000301085, Final residual = 1.58002e-06, No Iterations 4
time step continuity errors : sum local = 1.00355e-05, global = 1.02809e-06, cumulative = 1.02809e-06
ExecutionTime = 9.60314 s  ClockTime = 20 s

volFieldValue volAvgFinTemperature write:
    volAverage() of T = 347.256

volFieldValue volAvgHeaterTemperature write:
    volAverage() of T = 361.441

surfaceFieldValue averageTempHeaterFinInterface write:
    areaAverage(heater_to_fins) of T = 348.972

Region: fluid Courant Number mean: 1337.16 max: 41890.3
Region: fins Diffusion Number mean: 134.706 max: 143320
Region: heater Diffusion Number mean: 72.7343 max: 636.443
Time = 27s


Solving for solid region fins
GAMG:  Solving for e, Initial residual = 0.18298, Final residual = 0.00539978, No Iterations 1
Min/max T:346.335 351.063

Solving for solid region heater
GAMG:  Solving for e, Initial residual = 0.059738, Final residual = 2.70217e-05, No Iterations 1
Min/max T:350.332 369.166

Solving for fluid region fluid
DILUPBiCGStab:  Solving for Ux, Initial residual = 0.00123154, Final residual = 5.43025e-05, No Iterations 1
DILUPBiCGStab:  Solving for Uy, Initial residual = 0.00336746, Final residual = 0.000141753, No Iterations 1
DILUPBiCGStab:  Solving for Uz, Initial residual = 0.0031548, Final residual = 0.000134746, No Iterations 1
DILUPBiCGStab:  Solving for h, Initial residual = 0.00166243, Final residual = 0.000106978, No Iterations 1
Min/max T:296.571 350.842
GAMG:  Solving for p_rgh, Initial residual = 0.00907658, Final residual = 3.63905e-05, No Iterations 3
GAMG:  Solving for p_rgh, Initial residual = 0.0015492, Final residual = 8.301e-06, No Iterations 3
GAMG:  Solving for p_rgh, Initial residual = 0.000274967, Final residual = 1.95133e-06, No Iterations 3
time step continuity errors : sum local = 1.24118e-05, global = 7.80297e-07, cumulative = 7.80297e-07
ExecutionTime = 9.7652 s  ClockTime = 20 s

volFieldValue volAvgFinTemperature write:
    volAverage() of T = 349.101

volFieldValue volAvgHeaterTemperature write:
    volAverage() of T = 363.347

surfaceFieldValue averageTempHeaterFinInterface write:
    areaAverage(heater_to_fins) of T = 350.882

Region: fluid Courant Number mean: 1337.01 max: 41829.2
Region: fins Diffusion Number mean: 134.706 max: 143320
Region: heater Diffusion Number mean: 72.7343 max: 636.443
Time = 28s


Solving for solid region fins
GAMG:  Solving for e, Initial residual = 0.177439, Final residual = 0.00524309, No Iterations 1
Min/max T:348.142 352.968

Solving for solid region heater
GAMG:  Solving for e, Initial residual = 0.0593209, Final residual = 2.68488e-05, No Iterations 1
Min/max T:352.217 371.059

Solving for fluid region fluid
DILUPBiCGStab:  Solving for Ux, Initial residual = 0.00120847, Final residual = 5.32948e-05, No Iterations 1
DILUPBiCGStab:  Solving for Uy, Initial residual = 0.00328667, Final residual = 0.000138115, No Iterations 1
DILUPBiCGStab:  Solving for Uz, Initial residual = 0.00304253, Final residual = 0.000129821, No Iterations 1
DILUPBiCGStab:  Solving for h, Initial residual = 0.00161291, Final residual = 0.000103646, No Iterations 1
Min/max T:296.565 352.739
GAMG:  Solving for p_rgh, Initial residual = 0.00905671, Final residual = 3.76241e-05, No Iterations 3
GAMG:  Solving for p_rgh, Initial residual = 0.00156308, Final residual = 8.35463e-06, No Iterations 3
GAMG:  Solving for p_rgh, Initial residual = 0.00027377, Final residual = 1.89509e-06, No Iterations 3
time step continuity errors : sum local = 1.20682e-05, global = 9.59352e-07, cumulative = 9.59352e-07
ExecutionTime = 9.92885 s  ClockTime = 20 s

volFieldValue volAvgFinTemperature write:
    volAverage() of T = 350.933

volFieldValue volAvgHeaterTemperature write:
    volAverage() of T = 365.24

surfaceFieldValue averageTempHeaterFinInterface write:
    areaAverage(heater_to_fins) of T = 352.78

Region: fluid Courant Number mean: 1336.86 max: 41805.9
Region: fins Diffusion Number mean: 134.706 max: 143320
Region: heater Diffusion Number mean: 72.7343 max: 636.443
Time = 29s


Solving for solid region fins
GAMG:  Solving for e, Initial residual = 0.172189, Final residual = 0.00508905, No Iterations 1
Min/max T:349.937 354.861

Solving for solid region heater
GAMG:  Solving for e, Initial residual = 0.0589086, Final residual = 2.66394e-05, No Iterations 1
Min/max T:354.089 372.941

Solving for fluid region fluid
DILUPBiCGStab:  Solving for Ux, Initial residual = 0.00118716, Final residual = 5.23043e-05, No Iterations 1
DILUPBiCGStab:  Solving for Uy, Initial residual = 0.0032189, Final residual = 0.000135036, No Iterations 1
DILUPBiCGStab:  Solving for Uz, Initial residual = 0.00293748, Final residual = 0.000125085, No Iterations 1
DILUPBiCGStab:  Solving for h, Initial residual = 0.00156461, Final residual = 0.000100367, No Iterations 1
Min/max T:296.561 354.623
GAMG:  Solving for p_rgh, Initial residual = 0.00882111, Final residual = 8.7788e-05, No Iterations 2
GAMG:  Solving for p_rgh, Initial residual = 0.00145465, Final residual = 1.15368e-05, No Iterations 3
GAMG:  Solving for p_rgh, Initial residual = 0.000323593, Final residual = 2.20141e-06, No Iterations 3
time step continuity errors : sum local = 1.4046e-05, global = 8.99596e-07, cumulative = 8.99596e-07
ExecutionTime = 10.093 s  ClockTime = 21 s

volFieldValue volAvgFinTemperature write:
    volAverage() of T = 352.754

volFieldValue volAvgHeaterTemperature write:
    volAverage() of T = 367.122

surfaceFieldValue averageTempHeaterFinInterface write:
    areaAverage(heater_to_fins) of T = 354.665

Region: fluid Courant Number mean: 1336.72 max: 41818.1
Region: fins Diffusion Number mean: 134.706 max: 143320
Region: heater Diffusion Number mean: 72.7343 max: 636.443
Time = 30s


Solving for solid region fins
GAMG:  Solving for e, Initial residual = 0.167198, Final residual = 0.00499883, No Iterations 1
Min/max T:351.72 356.741

Solving for solid region heater
GAMG:  Solving for e, Initial residual = 0.058487, Final residual = 2.67006e-05, No Iterations 1
Min/max T:355.949 374.809

Solving for fluid region fluid
DILUPBiCGStab:  Solving for Ux, Initial residual = 0.0011655, Final residual = 5.1255e-05, No Iterations 1
DILUPBiCGStab:  Solving for Uy, Initial residual = 0.00315251, Final residual = 0.00013197, No Iterations 1
DILUPBiCGStab:  Solving for Uz, Initial residual = 0.00283739, Final residual = 0.000120583, No Iterations 1
DILUPBiCGStab:  Solving for h, Initial residual = 0.00151875, Final residual = 9.73815e-05, No Iterations 1
Min/max T:296.557 356.495
GAMG:  Solving for p_rgh, Initial residual = 0.00853128, Final residual = 3.42378e-05, No Iterations 3
GAMG:  Solving for p_rgh, Initial residual = 0.00142837, Final residual = 7.91837e-06, No Iterations 3
GAMG:  Solving for p_rgh, Initial residual = 0.000243306, Final residual = 1.71957e-06, No Iterations 3
time step continuity errors : sum local = 1.09974e-05, global = 6.46676e-07, cumulative = 6.46676e-07
ExecutionTime = 10.2881 s  ClockTime = 21 s

volFieldValue volAvgFinTemperature write:
    volAverage() of T = 354.562

volFieldValue volAvgHeaterTemperature write:
    volAverage() of T = 368.99

surfaceFieldValue averageTempHeaterFinInterface write:
    areaAverage(heater_to_fins) of T = 356.538

Region: fluid Courant Number mean: 1336.58 max: 41863
Region: fins Diffusion Number mean: 134.706 max: 143320
Region: heater Diffusion Number mean: 72.7343 max: 636.443
Time = 31s


Solving for solid region fins
GAMG:  Solving for e, Initial residual = 0.162458, Final residual = 0.00495059, No Iterations 1
Min/max T:353.49 358.608

Solving for solid region heater
GAMG:  Solving for e, Initial residual = 0.0580554, Final residual = 2.70053e-05, No Iterations 1
Min/max T:357.796 376.664

Solving for fluid region fluid
DILUPBiCGStab:  Solving for Ux, Initial residual = 0.00114527, Final residual = 5.02063e-05, No Iterations 1
DILUPBiCGStab:  Solving for Uy, Initial residual = 0.00308592, Final residual = 0.000129122, No Iterations 1
DILUPBiCGStab:  Solving for Uz, Initial residual = 0.00273828, Final residual = 0.000116128, No Iterations 1
DILUPBiCGStab:  Solving for h, Initial residual = 0.0014758, Final residual = 9.36301e-05, No Iterations 1
Min/max T:296.553 358.354
GAMG:  Solving for p_rgh, Initial residual = 0.00813232, Final residual = 3.29219e-05, No Iterations 3
GAMG:  Solving for p_rgh, Initial residual = 0.00129197, Final residual = 6.98886e-06, No Iterations 3
GAMG:  Solving for p_rgh, Initial residual = 0.000220081, Final residual = 1.58118e-06, No Iterations 3
time step continuity errors : sum local = 1.01327e-05, global = 5.19483e-07, cumulative = 5.19483e-07
ExecutionTime = 10.4678 s  ClockTime = 21 s

volFieldValue volAvgFinTemperature write:
    volAverage() of T = 356.355

volFieldValue volAvgHeaterTemperature write:
    volAverage() of T = 370.846

surfaceFieldValue averageTempHeaterFinInterface write:
    areaAverage(heater_to_fins) of T = 358.398

Region: fluid Courant Number mean: 1336.44 max: 41937.8
Region: fins Diffusion Number mean: 134.706 max: 143320
Region: heater Diffusion Number mean: 72.7343 max: 636.443
Time = 32s


Solving for solid region fins
GAMG:  Solving for e, Initial residual = 0.157913, Final residual = 0.00493048, No Iterations 1
Min/max T:355.246 360.462

Solving for solid region heater
GAMG:  Solving for e, Initial residual = 0.0576159, Final residual = 2.73989e-05, No Iterations 1
Min/max T:359.629 378.506

Solving for fluid region fluid
DILUPBiCGStab:  Solving for Ux, Initial residual = 0.00112523, Final residual = 4.91601e-05, No Iterations 1
DILUPBiCGStab:  Solving for Uy, Initial residual = 0.00302032, Final residual = 0.000126149, No Iterations 1
DILUPBiCGStab:  Solving for Uz, Initial residual = 0.00264454, Final residual = 0.000111879, No Iterations 1
DILUPBiCGStab:  Solving for h, Initial residual = 0.00143831, Final residual = 9.01742e-05, No Iterations 1
Min/max T:296.55 360.2
GAMG:  Solving for p_rgh, Initial residual = 0.00800689, Final residual = 3.33288e-05, No Iterations 3
GAMG:  Solving for p_rgh, Initial residual = 0.0012586, Final residual = 6.88689e-06, No Iterations 3
GAMG:  Solving for p_rgh, Initial residual = 0.000215892, Final residual = 1.54601e-06, No Iterations 3
time step continuity errors : sum local = 9.92517e-06, global = 4.24522e-07, cumulative = 4.24522e-07
ExecutionTime = 10.6818 s  ClockTime = 22 s

volFieldValue volAvgFinTemperature write:
    volAverage() of T = 358.135

volFieldValue volAvgHeaterTemperature write:
    volAverage() of T = 372.688

surfaceFieldValue averageTempHeaterFinInterface write:
    areaAverage(heater_to_fins) of T = 360.244

Region: fluid Courant Number mean: 1336.3 max: 42039.2
Region: fins Diffusion Number mean: 134.706 max: 143320
Region: heater Diffusion Number mean: 72.7343 max: 636.443
Time = 33s


Solving for solid region fins
GAMG:  Solving for e, Initial residual = 0.153554, Final residual = 0.00494317, No Iterations 1
Min/max T:356.986 362.303

Solving for solid region heater
GAMG:  Solving for e, Initial residual = 0.0571657, Final residual = 2.79376e-05, No Iterations 1
Min/max T:361.449 380.335

Solving for fluid region fluid
DILUPBiCGStab:  Solving for Ux, Initial residual = 0.0011063, Final residual = 4.82074e-05, No Iterations 1
DILUPBiCGStab:  Solving for Uy, Initial residual = 0.00296049, Final residual = 0.00012339, No Iterations 1
DILUPBiCGStab:  Solving for Uz, Initial residual = 0.00255275, Final residual = 0.000107837, No Iterations 1
DILUPBiCGStab:  Solving for h, Initial residual = 0.00140415, Final residual = 8.69608e-05, No Iterations 1
Min/max T:296.547 362.032
GAMG:  Solving for p_rgh, Initial residual = 0.00788572, Final residual = 3.21638e-05, No Iterations 3
GAMG:  Solving for p_rgh, Initial residual = 0.00124214, Final residual = 6.77021e-06, No Iterations 3
GAMG:  Solving for p_rgh, Initial residual = 0.000211228, Final residual = 1.53247e-06, No Iterations 3
time step continuity errors : sum local = 9.85463e-06, global = 4.1479e-07, cumulative = 4.1479e-07
ExecutionTime = 10.8423 s  ClockTime = 22 s

volFieldValue volAvgFinTemperature write:
    volAverage() of T = 359.899

volFieldValue volAvgHeaterTemperature write:
    volAverage() of T = 374.517

surfaceFieldValue averageTempHeaterFinInterface write:
    areaAverage(heater_to_fins) of T = 362.078

Region: fluid Courant Number mean: 1336.16 max: 42164.3
Region: fins Diffusion Number mean: 134.706 max: 143320
Region: heater Diffusion Number mean: 72.7343 max: 636.443
Time = 34s


Solving for solid region fins
GAMG:  Solving for e, Initial residual = 0.149338, Final residual = 0.0049654, No Iterations 1
Min/max T:358.71 364.13

Solving for solid region heater
GAMG:  Solving for e, Initial residual = 0.0567063, Final residual = 2.85538e-05, No Iterations 1
Min/max T:363.254 382.149

Solving for fluid region fluid
DILUPBiCGStab:  Solving for Ux, Initial residual = 0.00108792, Final residual = 4.72734e-05, No Iterations 1
DILUPBiCGStab:  Solving for Uy, Initial residual = 0.00290389, Final residual = 0.00012079, No Iterations 1
DILUPBiCGStab:  Solving for Uz, Initial residual = 0.00246537, Final residual = 0.000103896, No Iterations 1
DILUPBiCGStab:  Solving for h, Initial residual = 0.00137335, Final residual = 8.28635e-05, No Iterations 1
Min/max T:296.545 363.85
GAMG:  Solving for p_rgh, Initial residual = 0.00769059, Final residual = 3.06738e-05, No Iterations 3
GAMG:  Solving for p_rgh, Initial residual = 0.00120724, Final residual = 6.48698e-06, No Iterations 3
GAMG:  Solving for p_rgh, Initial residual = 0.000203022, Final residual = 1.45996e-06, No Iterations 3
time step continuity errors : sum local = 9.40801e-06, global = 4.11556e-07, cumulative = 4.11556e-07
ExecutionTime = 11.0233 s  ClockTime = 22 s

volFieldValue volAvgFinTemperature write:
    volAverage() of T = 361.648

volFieldValue volAvgHeaterTemperature write:
    volAverage() of T = 376.332

surfaceFieldValue averageTempHeaterFinInterface write:
    areaAverage(heater_to_fins) of T = 363.897

Region: fluid Courant Number mean: 1336.02 max: 42309.7
Region: fins Diffusion Number mean: 134.706 max: 143320
Region: heater Diffusion Number mean: 72.7343 max: 636.443
Time = 35s


Solving for solid region fins
GAMG:  Solving for e, Initial residual = 0.145211, Final residual = 0.00499293, No Iterations 1
Min/max T:360.416 365.943

Solving for solid region heater
GAMG:  Solving for e, Initial residual = 0.0562379, Final residual = 2.92462e-05, No Iterations 1
Min/max T:365.045 383.95

Solving for fluid region fluid
DILUPBiCGStab:  Solving for Ux, Initial residual = 0.00106984, Final residual = 4.63743e-05, No Iterations 1
DILUPBiCGStab:  Solving for Uy, Initial residual = 0.00285136, Final residual = 0.000118428, No Iterations 1
DILUPBiCGStab:  Solving for Uz, Initial residual = 0.0023802, Final residual = 0.000100069, No Iterations 1
DILUPBiCGStab:  Solving for h, Initial residual = 0.0013471, Final residual = 7.91393e-05, No Iterations 1
Min/max T:296.543 365.66
GAMG:  Solving for p_rgh, Initial residual = 0.00758216, Final residual = 3.19796e-05, No Iterations 3
GAMG:  Solving for p_rgh, Initial residual = 0.00120834, Final residual = 6.87539e-06, No Iterations 3
GAMG:  Solving for p_rgh, Initial residual = 0.000203815, Final residual = 1.50022e-06, No Iterations 3
time step continuity errors : sum local = 9.68887e-06, global = 2.80221e-07, cumulative = 2.80221e-07
ExecutionTime = 11.2423 s  ClockTime = 23 s

volFieldValue volAvgFinTemperature write:
    volAverage() of T = 363.381

volFieldValue volAvgHeaterTemperature write:
    volAverage() of T = 378.132

surfaceFieldValue averageTempHeaterFinInterface write:
    areaAverage(heater_to_fins) of T = 365.702

Region: fluid Courant Number mean: 1335.89 max: 42472.4
Region: fins Diffusion Number mean: 134.706 max: 143320
Region: heater Diffusion Number mean: 72.7343 max: 636.443
Time = 36s


Solving for solid region fins
GAMG:  Solving for e, Initial residual = 0.14119, Final residual = 0.00500866, No Iterations 1
Min/max T:362.105 367.742

Solving for solid region heater
GAMG:  Solving for e, Initial residual = 0.0557659, Final residual = 2.98697e-05, No Iterations 1
Min/max T:366.822 385.736

Solving for fluid region fluid
DILUPBiCGStab:  Solving for Ux, Initial residual = 0.00105285, Final residual = 4.55333e-05, No Iterations 1
DILUPBiCGStab:  Solving for Uy, Initial residual = 0.00280826, Final residual = 0.000116523, No Iterations 1
DILUPBiCGStab:  Solving for Uz, Initial residual = 0.00229937, Final residual = 9.65024e-05, No Iterations 1
DILUPBiCGStab:  Solving for h, Initial residual = 0.00132167, Final residual = 7.55024e-05, No Iterations 1
Min/max T:296.541 367.458
GAMG:  Solving for p_rgh, Initial residual = 0.00732639, Final residual = 3.09882e-05, No Iterations 3
GAMG:  Solving for p_rgh, Initial residual = 0.00120081, Final residual = 6.80819e-06, No Iterations 3
GAMG:  Solving for p_rgh, Initial residual = 0.000199695, Final residual = 1.4624e-06, No Iterations 3
time step continuity errors : sum local = 9.46599e-06, global = 9.33743e-08, cumulative = 9.33743e-08
ExecutionTime = 11.4805 s  ClockTime = 23 s

volFieldValue volAvgFinTemperature write:
    volAverage() of T = 365.098

volFieldValue volAvgHeaterTemperature write:
    volAverage() of T = 379.918

surfaceFieldValue averageTempHeaterFinInterface write:
    areaAverage(heater_to_fins) of T = 367.493

Region: fluid Courant Number mean: 1335.75 max: 42649.3
Region: fins Diffusion Number mean: 134.706 max: 143320
Region: heater Diffusion Number mean: 72.7343 max: 636.443
Time = 37s


Solving for solid region fins
GAMG:  Solving for e, Initial residual = 0.137238, Final residual = 0.00498803, No Iterations 1
Min/max T:363.776 369.527

Solving for solid region heater
GAMG:  Solving for e, Initial residual = 0.0552973, Final residual = 3.0318e-05, No Iterations 1
Min/max T:368.583 387.508

Solving for fluid region fluid
DILUPBiCGStab:  Solving for Ux, Initial residual = 0.00103662, Final residual = 4.47091e-05, No Iterations 1
DILUPBiCGStab:  Solving for Uy, Initial residual = 0.00276709, Final residual = 0.000114687, No Iterations 1
DILUPBiCGStab:  Solving for Uz, Initial residual = 0.00222279, Final residual = 9.3158e-05, No Iterations 1
DILUPBiCGStab:  Solving for h, Initial residual = 0.00129783, Final residual = 7.18292e-05, No Iterations 1
Min/max T:296.539 369.241
GAMG:  Solving for p_rgh, Initial residual = 0.00726264, Final residual = 3.20313e-05, No Iterations 3
GAMG:  Solving for p_rgh, Initial residual = 0.00124171, Final residual = 6.86797e-06, No Iterations 3
GAMG:  Solving for p_rgh, Initial residual = 0.000202118, Final residual = 1.4961e-06, No Iterations 3
time step continuity errors : sum local = 9.70662e-06, global = -2.72353e-07, cumulative = -2.72353e-07
ExecutionTime = 11.7574 s  ClockTime = 24 s

volFieldValue volAvgFinTemperature write:
    volAverage() of T = 366.8

volFieldValue volAvgHeaterTemperature write:
    volAverage() of T = 381.69

surfaceFieldValue averageTempHeaterFinInterface write:
    areaAverage(heater_to_fins) of T = 369.27

Region: fluid Courant Number mean: 1335.62 max: 42837.3
Region: fins Diffusion Number mean: 134.706 max: 143320
Region: heater Diffusion Number mean: 72.7343 max: 636.443
Time = 38s


Solving for solid region fins
GAMG:  Solving for e, Initial residual = 0.133369, Final residual = 0.00494938, No Iterations 1
Min/max T:365.431 371.298

Solving for solid region heater
GAMG:  Solving for e, Initial residual = 0.0548309, Final residual = 3.06743e-05, No Iterations 1
Min/max T:370.331 389.266

Solving for fluid region fluid
DILUPBiCGStab:  Solving for Ux, Initial residual = 0.00102119, Final residual = 4.39632e-05, No Iterations 1
DILUPBiCGStab:  Solving for Uy, Initial residual = 0.00273123, Final residual = 0.000112925, No Iterations 1
DILUPBiCGStab:  Solving for Uz, Initial residual = 0.00215179, Final residual = 9.0008e-05, No Iterations 1
DILUPBiCGStab:  Solving for h, Initial residual = 0.00127318, Final residual = 6.86323e-05, No Iterations 1
Min/max T:296.537 371.011
GAMG:  Solving for p_rgh, Initial residual = 0.00715831, Final residual = 3.14815e-05, No Iterations 3
GAMG:  Solving for p_rgh, Initial residual = 0.00124764, Final residual = 6.8346e-06, No Iterations 3
GAMG:  Solving for p_rgh, Initial residual = 0.000201107, Final residual = 1.50254e-06, No Iterations 3
time step continuity errors : sum local = 9.76866e-06, global = -4.97779e-08, cumulative = -4.97779e-08
ExecutionTime = 12.0041 s  ClockTime = 24 s

volFieldValue volAvgFinTemperature write:
    volAverage() of T = 368.487

volFieldValue volAvgHeaterTemperature write:
    volAverage() of T = 383.448

surfaceFieldValue averageTempHeaterFinInterface write:
    areaAverage(heater_to_fins) of T = 371.032

Region: fluid Courant Number mean: 1335.49 max: 43033.9
Region: fins Diffusion Number mean: 134.706 max: 143320
Region: heater Diffusion Number mean: 72.7343 max: 636.443
Time = 39s


Solving for solid region fins
GAMG:  Solving for e, Initial residual = 0.129614, Final residual = 0.00489539, No Iterations 1
Min/max T:367.071 373.054

Solving for solid region heater
GAMG:  Solving for e, Initial residual = 0.0543677, Final residual = 3.09338e-05, No Iterations 1
Min/max T:372.064 391.01

Solving for fluid region fluid
DILUPBiCGStab:  Solving for Ux, Initial residual = 0.00100625, Final residual = 4.32537e-05, No Iterations 1
DILUPBiCGStab:  Solving for Uy, Initial residual = 0.00269097, Final residual = 0.000110985, No Iterations 1
DILUPBiCGStab:  Solving for Uz, Initial residual = 0.00208193, Final residual = 8.69206e-05, No Iterations 1
DILUPBiCGStab:  Solving for h, Initial residual = 0.00125244, Final residual = 6.57915e-05, No Iterations 1
Min/max T:296.535 372.767
GAMG:  Solving for p_rgh, Initial residual = 0.00725742, Final residual = 3.07243e-05, No Iterations 3
GAMG:  Solving for p_rgh, Initial residual = 0.00126959, Final residual = 1.26107e-05, No Iterations 2
GAMG:  Solving for p_rgh, Initial residual = 0.000182639, Final residual = 1.10751e-06, No Iterations 4
time step continuity errors : sum local = 7.21817e-06, global = 5.90793e-07, cumulative = 5.90793e-07
ExecutionTime = 12.1899 s  ClockTime = 25 s

volFieldValue volAvgFinTemperature write:
    volAverage() of T = 370.159

volFieldValue volAvgHeaterTemperature write:
    volAverage() of T = 385.192

surfaceFieldValue averageTempHeaterFinInterface write:
    areaAverage(heater_to_fins) of T = 372.781

Region: fluid Courant Number mean: 1335.36 max: 43236.2
Region: fins Diffusion Number mean: 134.706 max: 143320
Region: heater Diffusion Number mean: 72.7343 max: 636.443
Time = 40s


Solving for solid region fins
GAMG:  Solving for e, Initial residual = 0.125994, Final residual = 0.00483403, No Iterations 1
Min/max T:368.695 374.797

Solving for solid region heater
GAMG:  Solving for e, Initial residual = 0.0539079, Final residual = 3.11169e-05, No Iterations 1
Min/max T:373.782 392.739

Solving for fluid region fluid
DILUPBiCGStab:  Solving for Ux, Initial residual = 0.000990767, Final residual = 4.24957e-05, No Iterations 1
DILUPBiCGStab:  Solving for Uy, Initial residual = 0.00264067, Final residual = 0.000108754, No Iterations 1
DILUPBiCGStab:  Solving for Uz, Initial residual = 0.00201103, Final residual = 8.37719e-05, No Iterations 1
DILUPBiCGStab:  Solving for h, Initial residual = 0.00123049, Final residual = 6.52372e-05, No Iterations 1
Min/max T:296.533 374.508
GAMG:  Solving for p_rgh, Initial residual = 0.00688529, Final residual = 2.80632e-05, No Iterations 3
GAMG:  Solving for p_rgh, Initial residual = 0.00113605, Final residual = 1.11179e-05, No Iterations 2
GAMG:  Solving for p_rgh, Initial residual = 0.00017192, Final residual = 9.58811e-07, No Iterations 4
time step continuity errors : sum local = 6.26167e-06, global = 1.39615e-07, cumulative = 1.39615e-07
ExecutionTime = 12.3847 s  ClockTime = 25 s

volFieldValue volAvgFinTemperature write:
    volAverage() of T = 371.817

volFieldValue volAvgHeaterTemperature write:
    volAverage() of T = 386.921

surfaceFieldValue averageTempHeaterFinInterface write:
    areaAverage(heater_to_fins) of T = 374.515

Region: fluid Courant Number mean: 1335.24 max: 43442
Region: fins Diffusion Number mean: 134.706 max: 143320
Region: heater Diffusion Number mean: 72.7343 max: 636.443
Time = 41s


Solving for solid region fins
GAMG:  Solving for e, Initial residual = 0.122459, Final residual = 0.00478287, No Iterations 1
Min/max T:370.304 376.526

Solving for solid region heater
GAMG:  Solving for e, Initial residual = 0.053443, Final residual = 3.14288e-05, No Iterations 1
Min/max T:375.487 394.455

Solving for fluid region fluid
DILUPBiCGStab:  Solving for Ux, Initial residual = 0.000975106, Final residual = 4.17106e-05, No Iterations 1
DILUPBiCGStab:  Solving for Uy, Initial residual = 0.00259072, Final residual = 0.000106725, No Iterations 1
DILUPBiCGStab:  Solving for Uz, Initial residual = 0.00194304, Final residual = 8.07713e-05, No Iterations 1
DILUPBiCGStab:  Solving for h, Initial residual = 0.00121203, Final residual = 6.53562e-05, No Iterations 1
Min/max T:296.53 376.236
GAMG:  Solving for p_rgh, Initial residual = 0.00672242, Final residual = 2.71329e-05, No Iterations 3
GAMG:  Solving for p_rgh, Initial residual = 0.0010721, Final residual = 5.40522e-06, No Iterations 3
GAMG:  Solving for p_rgh, Initial residual = 0.000179415, Final residual = 1.24159e-06, No Iterations 3
time step continuity errors : sum local = 8.1264e-06, global = -7.1322e-08, cumulative = -7.1322e-08
ExecutionTime = 12.5841 s  ClockTime = 25 s

volFieldValue volAvgFinTemperature write:
    volAverage() of T = 373.461

volFieldValue volAvgHeaterTemperature write:
    volAverage() of T = 388.637

surfaceFieldValue averageTempHeaterFinInterface write:
    areaAverage(heater_to_fins) of T = 376.235

Region: fluid Courant Number mean: 1335.11 max: 43649.1
Region: fins Diffusion Number mean: 134.706 max: 143320
Region: heater Diffusion Number mean: 72.7343 max: 636.443
Time = 42s


Solving for solid region fins
GAMG:  Solving for e, Initial residual = 0.119069, Final residual = 0.00472509, No Iterations 1
Min/max T:371.898 378.241

Solving for solid region heater
GAMG:  Solving for e, Initial residual = 0.0529793, Final residual = 3.16885e-05, No Iterations 1
Min/max T:377.177 396.156

Solving for fluid region fluid
DILUPBiCGStab:  Solving for Ux, Initial residual = 0.000959312, Final residual = 4.09535e-05, No Iterations 1
DILUPBiCGStab:  Solving for Uy, Initial residual = 0.00254137, Final residual = 0.000104687, No Iterations 1
DILUPBiCGStab:  Solving for Uz, Initial residual = 0.00187783, Final residual = 7.78787e-05, No Iterations 1
DILUPBiCGStab:  Solving for h, Initial residual = 0.00119162, Final residual = 6.55649e-05, No Iterations 1
Min/max T:296.528 377.95
GAMG:  Solving for p_rgh, Initial residual = 0.00659561, Final residual = 2.75495e-05, No Iterations 3
GAMG:  Solving for p_rgh, Initial residual = 0.00108262, Final residual = 5.5464e-06, No Iterations 3
GAMG:  Solving for p_rgh, Initial residual = 0.000175269, Final residual = 1.2572e-06, No Iterations 3
time step continuity errors : sum local = 8.24773e-06, global = -2.56614e-07, cumulative = -2.56614e-07
ExecutionTime = 12.7662 s  ClockTime = 26 s

volFieldValue volAvgFinTemperature write:
    volAverage() of T = 375.089

volFieldValue volAvgHeaterTemperature write:
    volAverage() of T = 390.338

surfaceFieldValue averageTempHeaterFinInterface write:
    areaAverage(heater_to_fins) of T = 377.941

Region: fluid Courant Number mean: 1334.99 max: 43855.7
Region: fins Diffusion Number mean: 134.706 max: 143320
Region: heater Diffusion Number mean: 72.7343 max: 636.443
Time = 43s


Solving for solid region fins
GAMG:  Solving for e, Initial residual = 0.115801, Final residual = 0.00465967, No Iterations 1
Min/max T:373.477 379.942

Solving for solid region heater
GAMG:  Solving for e, Initial residual = 0.0525187, Final residual = 3.18704e-05, No Iterations 1
Min/max T:378.848 397.844

Solving for fluid region fluid
DILUPBiCGStab:  Solving for Ux, Initial residual = 0.000944115, Final residual = 4.02195e-05, No Iterations 1
DILUPBiCGStab:  Solving for Uy, Initial residual = 0.00249754, Final residual = 0.000102835, No Iterations 1
DILUPBiCGStab:  Solving for Uz, Initial residual = 0.00181679, Final residual = 7.51155e-05, No Iterations 1
DILUPBiCGStab:  Solving for h, Initial residual = 0.00117048, Final residual = 6.57253e-05, No Iterations 1
Min/max T:296.526 379.649
GAMG:  Solving for p_rgh, Initial residual = 0.00650513, Final residual = 2.77943e-05, No Iterations 3
GAMG:  Solving for p_rgh, Initial residual = 0.00109785, Final residual = 5.68755e-06, No Iterations 3
GAMG:  Solving for p_rgh, Initial residual = 0.000175644, Final residual = 1.30936e-06, No Iterations 3
time step continuity errors : sum local = 8.60791e-06, global = -2.6952e-07, cumulative = -2.6952e-07
ExecutionTime = 12.9857 s  ClockTime = 26 s

volFieldValue volAvgFinTemperature write:
    volAverage() of T = 376.704

volFieldValue volAvgHeaterTemperature write:
    volAverage() of T = 392.026

surfaceFieldValue averageTempHeaterFinInterface write:
    areaAverage(heater_to_fins) of T = 379.633

Region: fluid Courant Number mean: 1334.88 max: 44060
Region: fins Diffusion Number mean: 134.706 max: 143320
Region: heater Diffusion Number mean: 72.7343 max: 636.443
Time = 44s


Solving for solid region fins
GAMG:  Solving for e, Initial residual = 0.112651, Final residual = 0.0045912, No Iterations 1
Min/max T:375.04 381.629

Solving for solid region heater
GAMG:  Solving for e, Initial residual = 0.0520606, Final residual = 3.20046e-05, No Iterations 1
Min/max T:380.5 399.517

Solving for fluid region fluid
DILUPBiCGStab:  Solving for Ux, Initial residual = 0.000929072, Final residual = 3.94459e-05, No Iterations 1
DILUPBiCGStab:  Solving for Uy, Initial residual = 0.00245291, Final residual = 0.000101022, No Iterations 1
DILUPBiCGStab:  Solving for Uz, Initial residual = 0.00175822, Final residual = 7.24615e-05, No Iterations 1
DILUPBiCGStab:  Solving for h, Initial residual = 0.00114835, Final residual = 6.59225e-05, No Iterations 1
Min/max T:296.524 381.335
GAMG:  Solving for p_rgh, Initial residual = 0.00648977, Final residual = 2.82783e-05, No Iterations 3
GAMG:  Solving for p_rgh, Initial residual = 0.00108685, Final residual = 6.02757e-06, No Iterations 3
GAMG:  Solving for p_rgh, Initial residual = 0.00017445, Final residual = 1.35038e-06, No Iterations 3
time step continuity errors : sum local = 8.89515e-06, global = -8.69421e-08, cumulative = -8.69421e-08
ExecutionTime = 13.1609 s  ClockTime = 26 s

volFieldValue volAvgFinTemperature write:
    volAverage() of T = 378.304

volFieldValue volAvgHeaterTemperature write:
    volAverage() of T = 393.699

surfaceFieldValue averageTempHeaterFinInterface write:
    areaAverage(heater_to_fins) of T = 381.311

Region: fluid Courant Number mean: 1334.76 max: 44260.7
Region: fins Diffusion Number mean: 134.706 max: 143320
Region: heater Diffusion Number mean: 72.7343 max: 636.443
Time = 45s


Solving for solid region fins
GAMG:  Solving for e, Initial residual = 0.109613, Final residual = 0.00451886, No Iterations 1
Min/max T:376.589 383.302

Solving for solid region heater
GAMG:  Solving for e, Initial residual = 0.0516058, Final residual = 3.20855e-05, No Iterations 1
Min/max T:382.137 401.177

Solving for fluid region fluid
DILUPBiCGStab:  Solving for Ux, Initial residual = 0.000914335, Final residual = 3.86884e-05, No Iterations 1
DILUPBiCGStab:  Solving for Uy, Initial residual = 0.00240708, Final residual = 9.91564e-05, No Iterations 1
DILUPBiCGStab:  Solving for Uz, Initial residual = 0.00170073, Final residual = 6.992e-05, No Iterations 1
DILUPBiCGStab:  Solving for h, Initial residual = 0.00112897, Final residual = 6.61975e-05, No Iterations 1
Min/max T:296.521 383.007
GAMG:  Solving for p_rgh, Initial residual = 0.00648772, Final residual = 2.77449e-05, No Iterations 3
GAMG:  Solving for p_rgh, Initial residual = 0.00107698, Final residual = 5.7708e-06, No Iterations 3
GAMG:  Solving for p_rgh, Initial residual = 0.000172592, Final residual = 1.31299e-06, No Iterations 3
[...]
DILUPBiCGStab:  Solving for Uy, Initial residual = 0.000136826, Final residual = 5.74026e-06, No Iterations 1
DILUPBiCGStab:  Solving for Uz, Initial residual = 0.00010993, Final residual = 4.65153e-06, No Iterations 1
DILUPBiCGStab:  Solving for h, Initial residual = 0.000736457, Final residual = 2.35888e-05, No Iterations 1
Min/max T:295.397 575.588
GAMG:  Solving for p_rgh, Initial residual = 0.00116267, Final residual = 4.89161e-06, No Iterations 3
GAMG:  Solving for p_rgh, Initial residual = 0.000181313, Final residual = 1.64932e-06, No Iterations 2
GAMG:  Solving for p_rgh, Initial residual = 2.52291e-05, Final residual = 1.82284e-07, No Iterations 3
time step continuity errors : sum local = 1.49998e-06, global = -3.57912e-07, cumulative = -3.57912e-07
ExecutionTime = 413.23 s  ClockTime = 758 s

volFieldValue volAvgFinTemperature write:
    volAverage() of T = 561.782

volFieldValue volAvgHeaterTemperature write:
    volAverage() of T = 586.333

surfaceFieldValue averageTempHeaterFinInterface write:
    areaAverage(heater_to_fins) of T = 574.496

Region: fluid Courant Number mean: 1325.63 max: 42577.8
Region: fins Diffusion Number mean: 134.706 max: 143320
Region: heater Diffusion Number mean: 72.7343 max: 636.443
Time = 1990s


Solving for solid region fins
GAMG:  Solving for e, Initial residual = 1.35229e-05, Final residual = 1.2574e-06, No Iterations 1
Min/max T:552.778 576.624

Solving for solid region heater
GAMG:  Solving for e, Initial residual = 1.81248e-05, Final residual = 3.33915e-08, No Iterations 1
Min/max T:570.135 592.294

Solving for fluid region fluid
DILUPBiCGStab:  Solving for Ux, Initial residual = 3.24377e-05, Final residual = 1.43543e-06, No Iterations 1
DILUPBiCGStab:  Solving for Uy, Initial residual = 0.000138199, Final residual = 5.8014e-06, No Iterations 1
DILUPBiCGStab:  Solving for Uz, Initial residual = 0.000110496, Final residual = 4.67384e-06, No Iterations 1
DILUPBiCGStab:  Solving for h, Initial residual = 0.000736444, Final residual = 2.35959e-05, No Iterations 1
Min/max T:295.397 575.588
GAMG:  Solving for p_rgh, Initial residual = 0.00111671, Final residual = 4.90595e-06, No Iterations 3
GAMG:  Solving for p_rgh, Initial residual = 0.000181464, Final residual = 1.64632e-06, No Iterations 2
GAMG:  Solving for p_rgh, Initial residual = 2.51713e-05, Final residual = 1.81229e-07, No Iterations 3
time step continuity errors : sum local = 1.4911e-06, global = -3.46829e-07, cumulative = -3.46829e-07
ExecutionTime = 413.273 s  ClockTime = 758 s

volFieldValue volAvgFinTemperature write:
    volAverage() of T = 561.783

volFieldValue volAvgHeaterTemperature write:
    volAverage() of T = 586.333

surfaceFieldValue averageTempHeaterFinInterface write:
    areaAverage(heater_to_fins) of T = 574.496

Region: fluid Courant Number mean: 1325.63 max: 42579.4
Region: fins Diffusion Number mean: 134.706 max: 143320
Region: heater Diffusion Number mean: 72.7343 max: 636.443
Time = 1991s


Solving for solid region fins
GAMG:  Solving for e, Initial residual = 1.35895e-05, Final residual = 1.18186e-06, No Iterations 1
Min/max T:552.779 576.625

Solving for solid region heater
GAMG:  Solving for e, Initial residual = 1.81199e-05, Final residual = 3.26342e-08, No Iterations 1
Min/max T:570.135 592.295

Solving for fluid region fluid
DILUPBiCGStab:  Solving for Ux, Initial residual = 3.2651e-05, Final residual = 1.44497e-06, No Iterations 1
DILUPBiCGStab:  Solving for Uy, Initial residual = 0.000139597, Final residual = 5.86451e-06, No Iterations 1
DILUPBiCGStab:  Solving for Uz, Initial residual = 0.000111153, Final residual = 4.69639e-06, No Iterations 1
DILUPBiCGStab:  Solving for h, Initial residual = 0.000736535, Final residual = 2.36027e-05, No Iterations 1
Min/max T:295.397 575.589
GAMG:  Solving for p_rgh, Initial residual = 0.00109419, Final residual = 4.95892e-06, No Iterations 3
GAMG:  Solving for p_rgh, Initial residual = 0.000182509, Final residual = 1.65934e-06, No Iterations 2
GAMG:  Solving for p_rgh, Initial residual = 2.51128e-05, Final residual = 1.82831e-07, No Iterations 3
time step continuity errors : sum local = 1.50408e-06, global = -3.5245e-07, cumulative = -3.5245e-07
ExecutionTime = 413.319 s  ClockTime = 758 s

volFieldValue volAvgFinTemperature write:
    volAverage() of T = 561.783

volFieldValue volAvgHeaterTemperature write:
    volAverage() of T = 586.334

surfaceFieldValue averageTempHeaterFinInterface write:
    areaAverage(heater_to_fins) of T = 574.497

Region: fluid Courant Number mean: 1325.63 max: 42581.2
Region: fins Diffusion Number mean: 134.706 max: 143320
Region: heater Diffusion Number mean: 72.7343 max: 636.443
Time = 1992s


Solving for solid region fins
GAMG:  Solving for e, Initial residual = 1.3428e-05, Final residual = 1.07318e-06, No Iterations 1
Min/max T:552.78 576.626

Solving for solid region heater
GAMG:  Solving for e, Initial residual = 1.80668e-05, Final residual = 3.11897e-08, No Iterations 1
Min/max T:570.136 592.295

Solving for fluid region fluid
DILUPBiCGStab:  Solving for Ux, Initial residual = 3.28645e-05, Final residual = 1.45443e-06, No Iterations 1
DILUPBiCGStab:  Solving for Uy, Initial residual = 0.000141087, Final residual = 5.92858e-06, No Iterations 1
DILUPBiCGStab:  Solving for Uz, Initial residual = 0.000111863, Final residual = 4.72249e-06, No Iterations 1
DILUPBiCGStab:  Solving for h, Initial residual = 0.000736786, Final residual = 2.3617e-05, No Iterations 1
Min/max T:295.398 575.589
GAMG:  Solving for p_rgh, Initial residual = 0.00108872, Final residual = 5.09722e-06, No Iterations 3
GAMG:  Solving for p_rgh, Initial residual = 0.00018441, Final residual = 1.6822e-06, No Iterations 2
GAMG:  Solving for p_rgh, Initial residual = 2.53155e-05, Final residual = 1.84026e-07, No Iterations 3
time step continuity errors : sum local = 1.51376e-06, global = -3.37187e-07, cumulative = -3.37187e-07
ExecutionTime = 413.364 s  ClockTime = 758 s

volFieldValue volAvgFinTemperature write:
    volAverage() of T = 561.784

volFieldValue volAvgHeaterTemperature write:
    volAverage() of T = 586.334

surfaceFieldValue averageTempHeaterFinInterface write:
    areaAverage(heater_to_fins) of T = 574.498

Region: fluid Courant Number mean: 1325.62 max: 42583.2
Region: fins Diffusion Number mean: 134.706 max: 143320
Region: heater Diffusion Number mean: 72.7343 max: 636.443
Time = 1993s


Solving for solid region fins
GAMG:  Solving for e, Initial residual = 1.32606e-05, Final residual = 1.00547e-06, No Iterations 1
Min/max T:552.78 576.626

Solving for solid region heater
GAMG:  Solving for e, Initial residual = 1.80393e-05, Final residual = 2.98521e-08, No Iterations 1
Min/max T:570.137 592.296

Solving for fluid region fluid
DILUPBiCGStab:  Solving for Ux, Initial residual = 3.30915e-05, Final residual = 1.46454e-06, No Iterations 1
DILUPBiCGStab:  Solving for Uy, Initial residual = 0.000142742, Final residual = 5.99624e-06, No Iterations 1
DILUPBiCGStab:  Solving for Uz, Initial residual = 0.000112626, Final residual = 4.74897e-06, No Iterations 1
DILUPBiCGStab:  Solving for h, Initial residual = 0.000737109, Final residual = 2.36333e-05, No Iterations 1
Min/max T:295.398 575.59
GAMG:  Solving for p_rgh, Initial residual = 0.00109859, Final residual = 5.21071e-06, No Iterations 3
GAMG:  Solving for p_rgh, Initial residual = 0.000187384, Final residual = 1.68803e-06, No Iterations 2
GAMG:  Solving for p_rgh, Initial residual = 2.55987e-05, Final residual = 1.8292e-07, No Iterations 3
time step continuity errors : sum local = 1.50462e-06, global = -3.00043e-07, cumulative = -3.00043e-07
ExecutionTime = 413.411 s  ClockTime = 759 s

volFieldValue volAvgFinTemperature write:
    volAverage() of T = 561.785

volFieldValue volAvgHeaterTemperature write:
    volAverage() of T = 586.335

surfaceFieldValue averageTempHeaterFinInterface write:
    areaAverage(heater_to_fins) of T = 574.498

Region: fluid Courant Number mean: 1325.62 max: 42585.4
Region: fins Diffusion Number mean: 134.706 max: 143320
Region: heater Diffusion Number mean: 72.7343 max: 636.443
Time = 1994s


Solving for solid region fins
GAMG:  Solving for e, Initial residual = 1.31623e-05, Final residual = 9.60515e-07, No Iterations 1
Min/max T:552.781 576.627

Solving for solid region heater
GAMG:  Solving for e, Initial residual = 1.80396e-05, Final residual = 2.86683e-08, No Iterations 1
Min/max T:570.137 592.296

Solving for fluid region fluid
DILUPBiCGStab:  Solving for Ux, Initial residual = 3.33232e-05, Final residual = 1.47465e-06, No Iterations 1
DILUPBiCGStab:  Solving for Uy, Initial residual = 0.000144447, Final residual = 6.06585e-06, No Iterations 1
DILUPBiCGStab:  Solving for Uz, Initial residual = 0.000113457, Final residual = 4.77792e-06, No Iterations 1
DILUPBiCGStab:  Solving for h, Initial residual = 0.000737406, Final residual = 2.3654e-05, No Iterations 1
Min/max T:295.398 575.591
GAMG:  Solving for p_rgh, Initial residual = 0.00111449, Final residual = 5.30566e-06, No Iterations 3
GAMG:  Solving for p_rgh, Initial residual = 0.00019165, Final residual = 1.70539e-06, No Iterations 2
GAMG:  Solving for p_rgh, Initial residual = 2.59325e-05, Final residual = 1.84286e-07, No Iterations 3
time step continuity errors : sum local = 1.51589e-06, global = -2.54483e-07, cumulative = -2.54483e-07
ExecutionTime = 413.458 s  ClockTime = 759 s

volFieldValue volAvgFinTemperature write:
    volAverage() of T = 561.785

volFieldValue volAvgHeaterTemperature write:
    volAverage() of T = 586.336

surfaceFieldValue averageTempHeaterFinInterface write:
    areaAverage(heater_to_fins) of T = 574.499

Region: fluid Courant Number mean: 1325.61 max: 42587.8
Region: fins Diffusion Number mean: 134.706 max: 143320
Region: heater Diffusion Number mean: 72.7343 max: 636.443
Time = 1995s


Solving for solid region fins
GAMG:  Solving for e, Initial residual = 1.30955e-05, Final residual = 9.20801e-07, No Iterations 1
Min/max T:552.781 576.628

Solving for solid region heater
GAMG:  Solving for e, Initial residual = 1.8056e-05, Final residual = 2.75782e-08, No Iterations 1
Min/max T:570.138 592.297

Solving for fluid region fluid
DILUPBiCGStab:  Solving for Ux, Initial residual = 3.35573e-05, Final residual = 1.48366e-06, No Iterations 1
DILUPBiCGStab:  Solving for Uy, Initial residual = 0.000146164, Final residual = 6.13799e-06, No Iterations 1
DILUPBiCGStab:  Solving for Uz, Initial residual = 0.000114281, Final residual = 4.80854e-06, No Iterations 1
DILUPBiCGStab:  Solving for h, Initial residual = 0.000737816, Final residual = 2.3674e-05, No Iterations 1
Min/max T:295.398 575.591
GAMG:  Solving for p_rgh, Initial residual = 0.0011311, Final residual = 5.41253e-06, No Iterations 3
GAMG:  Solving for p_rgh, Initial residual = 0.000193111, Final residual = 1.69046e-06, No Iterations 2
GAMG:  Solving for p_rgh, Initial residual = 2.63139e-05, Final residual = 1.85443e-07, No Iterations 3
time step continuity errors : sum local = 1.52555e-06, global = -1.99353e-07, cumulative = -1.99353e-07
ExecutionTime = 413.505 s  ClockTime = 759 s

volFieldValue volAvgFinTemperature write:
    volAverage() of T = 561.786

volFieldValue volAvgHeaterTemperature write:
    volAverage() of T = 586.336

surfaceFieldValue averageTempHeaterFinInterface write:
    areaAverage(heater_to_fins) of T = 574.499

Region: fluid Courant Number mean: 1325.61 max: 42590.4
Region: fins Diffusion Number mean: 134.706 max: 143320
Region: heater Diffusion Number mean: 72.7343 max: 636.443
Time = 1996s


Solving for solid region fins
GAMG:  Solving for e, Initial residual = 1.30556e-05, Final residual = 8.94041e-07, No Iterations 1
Min/max T:552.782 576.628

Solving for solid region heater
GAMG:  Solving for e, Initial residual = 1.8099e-05, Final residual = 2.68359e-08, No Iterations 1
Min/max T:570.138 592.298

Solving for fluid region fluid
DILUPBiCGStab:  Solving for Ux, Initial residual = 3.38251e-05, Final residual = 1.49362e-06, No Iterations 1
DILUPBiCGStab:  Solving for Uy, Initial residual = 0.000147924, Final residual = 6.21332e-06, No Iterations 1
DILUPBiCGStab:  Solving for Uz, Initial residual = 0.000115169, Final residual = 4.8437e-06, No Iterations 1
DILUPBiCGStab:  Solving for h, Initial residual = 0.000738193, Final residual = 2.36901e-05, No Iterations 1
Min/max T:295.398 575.592
GAMG:  Solving for p_rgh, Initial residual = 0.0011738, Final residual = 5.701e-06, No Iterations 3
GAMG:  Solving for p_rgh, Initial residual = 0.000198877, Final residual = 1.73943e-06, No Iterations 2
GAMG:  Solving for p_rgh, Initial residual = 2.70015e-05, Final residual = 1.92736e-07, No Iterations 3
time step continuity errors : sum local = 1.58569e-06, global = -1.31503e-07, cumulative = -1.31503e-07
ExecutionTime = 413.554 s  ClockTime = 759 s

volFieldValue volAvgFinTemperature write:
    volAverage() of T = 561.786

volFieldValue volAvgHeaterTemperature write:
    volAverage() of T = 586.337

surfaceFieldValue averageTempHeaterFinInterface write:
    areaAverage(heater_to_fins) of T = 574.5

Region: fluid Courant Number mean: 1325.61 max: 42593.2
Region: fins Diffusion Number mean: 134.706 max: 143320
Region: heater Diffusion Number mean: 72.7343 max: 636.443
Time = 1997s


Solving for solid region fins
GAMG:  Solving for e, Initial residual = 1.30478e-05, Final residual = 8.80848e-07, No Iterations 1
Min/max T:552.783 576.629

Solving for solid region heater
GAMG:  Solving for e, Initial residual = 1.81696e-05, Final residual = 2.65185e-08, No Iterations 1
Min/max T:570.139 592.298

Solving for fluid region fluid
DILUPBiCGStab:  Solving for Ux, Initial residual = 3.41201e-05, Final residual = 1.50565e-06, No Iterations 1
DILUPBiCGStab:  Solving for Uy, Initial residual = 0.000149846, Final residual = 6.28988e-06, No Iterations 1
DILUPBiCGStab:  Solving for Uz, Initial residual = 0.000116188, Final residual = 4.88212e-06, No Iterations 1
DILUPBiCGStab:  Solving for h, Initial residual = 0.000738657, Final residual = 2.37062e-05, No Iterations 1
Min/max T:295.399 575.593
GAMG:  Solving for p_rgh, Initial residual = 0.00119646, Final residual = 5.82359e-06, No Iterations 3
GAMG:  Solving for p_rgh, Initial residual = 0.000201112, Final residual = 1.78023e-06, No Iterations 2
GAMG:  Solving for p_rgh, Initial residual = 2.74269e-05, Final residual = 2.00664e-07, No Iterations 3
time step continuity errors : sum local = 1.65104e-06, global = -6.95312e-08, cumulative = -6.95312e-08
ExecutionTime = 413.607 s  ClockTime = 759 s

volFieldValue volAvgFinTemperature write:
    volAverage() of T = 561.787

volFieldValue volAvgHeaterTemperature write:
    volAverage() of T = 586.337

surfaceFieldValue averageTempHeaterFinInterface write:
    areaAverage(heater_to_fins) of T = 574.501

Region: fluid Courant Number mean: 1325.6 max: 42596.2
Region: fins Diffusion Number mean: 134.706 max: 143320
Region: heater Diffusion Number mean: 72.7343 max: 636.443
Time = 1998s


Solving for solid region fins
GAMG:  Solving for e, Initial residual = 1.30933e-05, Final residual = 8.91349e-07, No Iterations 1
Min/max T:552.783 576.629

Solving for solid region heater
GAMG:  Solving for e, Initial residual = 1.82327e-05, Final residual = 2.61808e-08, No Iterations 1
Min/max T:570.14 592.299

Solving for fluid region fluid
DILUPBiCGStab:  Solving for Ux, Initial residual = 3.44031e-05, Final residual = 1.51808e-06, No Iterations 1
DILUPBiCGStab:  Solving for Uy, Initial residual = 0.000151772, Final residual = 6.3648e-06, No Iterations 1
DILUPBiCGStab:  Solving for Uz, Initial residual = 0.000117239, Final residual = 4.91845e-06, No Iterations 1
DILUPBiCGStab:  Solving for h, Initial residual = 0.000739227, Final residual = 2.37188e-05, No Iterations 1
Min/max T:295.399 575.593
GAMG:  Solving for p_rgh, Initial residual = 0.00123497, Final residual = 5.96004e-06, No Iterations 3
GAMG:  Solving for p_rgh, Initial residual = 0.000205615, Final residual = 1.90217e-06, No Iterations 2
GAMG:  Solving for p_rgh, Initial residual = 2.82053e-05, Final residual = 2.25798e-07, No Iterations 3
time step continuity errors : sum local = 1.85801e-06, global = -1.14184e-07, cumulative = -1.14184e-07
ExecutionTime = 413.659 s  ClockTime = 759 s

volFieldValue volAvgFinTemperature write:
    volAverage() of T = 561.788

volFieldValue volAvgHeaterTemperature write:
    volAverage() of T = 586.338

surfaceFieldValue averageTempHeaterFinInterface write:
    areaAverage(heater_to_fins) of T = 574.501

Region: fluid Courant Number mean: 1325.6 max: 42599.5
Region: fins Diffusion Number mean: 134.706 max: 143320
Region: heater Diffusion Number mean: 72.7343 max: 636.443
Time = 1999s


Solving for solid region fins
GAMG:  Solving for e, Initial residual = 1.31794e-05, Final residual = 9.13057e-07, No Iterations 1
Min/max T:552.784 576.63

Solving for solid region heater
GAMG:  Solving for e, Initial residual = 1.82959e-05, Final residual = 2.60764e-08, No Iterations 1
Min/max T:570.14 592.3

Solving for fluid region fluid
DILUPBiCGStab:  Solving for Ux, Initial residual = 3.47691e-05, Final residual = 1.53187e-06, No Iterations 1
DILUPBiCGStab:  Solving for Uy, Initial residual = 0.00015389, Final residual = 6.44352e-06, No Iterations 1
DILUPBiCGStab:  Solving for Uz, Initial residual = 0.000118471, Final residual = 4.96202e-06, No Iterations 1
DILUPBiCGStab:  Solving for h, Initial residual = 0.000739773, Final residual = 2.37343e-05, No Iterations 1
Min/max T:295.399 575.594
GAMG:  Solving for p_rgh, Initial residual = 0.001242, Final residual = 6.10009e-06, No Iterations 3
GAMG:  Solving for p_rgh, Initial residual = 0.000205487, Final residual = 2.02173e-06, No Iterations 2
GAMG:  Solving for p_rgh, Initial residual = 2.83119e-05, Final residual = 2.44509e-07, No Iterations 3
time step continuity errors : sum local = 2.01208e-06, global = -1.60521e-07, cumulative = -1.60521e-07
ExecutionTime = 413.71 s  ClockTime = 759 s

volFieldValue volAvgFinTemperature write:
    volAverage() of T = 561.788

volFieldValue volAvgHeaterTemperature write:
    volAverage() of T = 586.339

surfaceFieldValue averageTempHeaterFinInterface write:
    areaAverage(heater_to_fins) of T = 574.502

Region: fluid Courant Number mean: 1325.6 max: 42603
Region: fins Diffusion Number mean: 134.706 max: 143320
Region: heater Diffusion Number mean: 72.7343 max: 636.443
Time = 2000s


Solving for solid region fins
GAMG:  Solving for e, Initial residual = 1.32662e-05, Final residual = 9.38875e-07, No Iterations 1
Min/max T:552.784 576.631

Solving for solid region heater
GAMG:  Solving for e, Initial residual = 1.83746e-05, Final residual = 2.64655e-08, No Iterations 1
Min/max T:570.141 592.3

Solving for fluid region fluid
DILUPBiCGStab:  Solving for Ux, Initial residual = 3.51328e-05, Final residual = 1.54473e-06, No Iterations 1
DILUPBiCGStab:  Solving for Uy, Initial residual = 0.000155735, Final residual = 6.51246e-06, No Iterations 1
DILUPBiCGStab:  Solving for Uz, Initial residual = 0.000119652, Final residual = 5.00047e-06, No Iterations 1
DILUPBiCGStab:  Solving for h, Initial residual = 0.000740346, Final residual = 2.37779e-05, No Iterations 1
Min/max T:295.399 575.594
GAMG:  Solving for p_rgh, Initial residual = 0.00131894, Final residual = 6.22124e-06, No Iterations 3
GAMG:  Solving for p_rgh, Initial residual = 0.000215249, Final residual = 8.64538e-07, No Iterations 3
GAMG:  Solving for p_rgh, Initial residual = 3.02712e-05, Final residual = 1.63863e-07, No Iterations 3
time step continuity errors : sum local = 1.34829e-06, global = -6.50901e-08, cumulative = -6.50901e-08
ExecutionTime = 413.801 s  ClockTime = 760 s

volFieldValue volAvgFinTemperature write:
    volAverage() of T = 561.789

volFieldValue volAvgHeaterTemperature write:
    volAverage() of T = 586.339

surfaceFieldValue averageTempHeaterFinInterface write:
    areaAverage(heater_to_fins) of T = 574.503

End

