/*---------------------------------------------------------------------------*\
  =========                 |
  \\      /  F ield         | OpenFOAM: The Open Source CFD Toolbox
   \\    /   O peration     | Website:  https://openfoam.org
    \\  /    A nd           | Version:  10
     \\/     M anipulation  |
\*---------------------------------------------------------------------------*/
Build  : 10-c4cf895ad8fa
Exec   : ideasUnvToFoam mesh.unv
Date   : Nov 10 2023
Time   : 00:25:40
Host   : "alexesn"
PID    : 18011
I/O    : uncollated
Case   : /home/alexesn/FOAM_project/heatExchanger/all_auto/case_0_0_0
nProcs : 1
sigFpe : Enabling floating point exception trapping (FOAM_SIGFPE).
fileModificationChecking : Monitoring run-time modified files using timeStampMaster (fileModificationSkew 10)
allowSystemOperations : Allowing user-supplied system call operations

// * * * * * * * * * * * * * * * * * * * * * * * * * * * * * * * * * * * * * //
Create time

Processing tag:164
Starting reading units at line 3.
l:1
units:"  SI: Meter (newton)"
unitType:2
Unit factors:
    Length scale       : 1
    Force scale        : 1
    Temperature scale  : 1
    Temperature offset : 273.15


Processing tag:2420
Skipping tag 2420 on line 9
Skipping section at line 9.

Processing tag:2411
Starting reading points at line 20.
Read 3553 points.

Processing tag:2412
Starting reading cells at line 7129.
First occurrence of element type 11 for cell 1 at line 7130
First occurrence of element type 41 for cell 408 at line 8351
First occurrence of element type 111 for cell 3834 at line 15203
/*---------------------------------------------------------------------------*\
  =========                 |
  \\      /  F ield         | OpenFOAM: The Open Source CFD Toolbox
   \\    /   O peration     | Website:  https://openfoam.org
    \\  /    A nd           | Version:  10
     \\/     M anipulation  |
\*---------------------------------------------------------------------------*/
Build  : 10-c4cf895ad8fa
Exec   : ideasUnvToFoam mesh.unv
Date   : Nov 10 2023
Time   : 00:25:40
Host   : "alexesn"
PID    : 18023
I/O    : uncollated
Case   : /home/alexesn/FOAM_project/heatExchanger/all_auto/case_0_5_0
nProcs : 1
sigFpe : Enabling floating point exception trapping (FOAM_SIGFPE).
fileModificationChecking : Monitoring run-time modified files using timeStampMaster (fileModificationSkew 10)
allowSystemOperations : Allowing user-supplied system call operations

// * * * * * * * * * * * * * * * * * * * * * * * * * * * * * * * * * * * * * //
Create time

Processing tag:164
Starting reading units at line 3.
l:1
units:"  SI: Meter (newton)"
unitType:2
Unit factors:
    Length scale       : 1
    Force scale        : 1
    Temperature scale  : 1
    Temperature offset : 273.15


Processing tag:2420
Skipping tag 2420 on line 9
Skipping section at line 9.

Processing tag:2411
Starting reading points at line 20.
Read 3607 points.

Processing tag:2412
Starting reading cells at line 7237.
First occurrence of element type 11 for cell 1 at line 7238
First occurrence of element type 41 for cell 407 at line 8456
First occurrence of element type 111 for cell 3825 at line 15292
Read 17650 cells and 3426 boundary faces.

Processing tag:2467
Starting reading patches at line 50505.
For group 1 named heater trying to read 615 patch face indices.
For group 2 named fluid trying to read 14407 patch face indices.
For group 3 named fins trying to read 2628 patch face indices.
For group 4 named inlet_fluid trying to read 35 patch face indices.
For group 5 named outlet_fluid trying to read 26 patch face indices.
For group 6 named walls_fluid trying to read 1307 patch face indices.
For group 7 named walls_heater trying to read 200 patch face indices.
For group 8 named base_fins trying to read 428 patch face indices.

Of 3426 so-called boundary faces 1430 belong to two cells and are therefore internal
Sorting boundary faces according to group (patch)
0: heater is cellZone
1: fluid is cellZone
2: fins is cellZone
3: inlet_fluid is patch
4: outlet_fluid is patch
5: walls_fluid is patch
6: walls_heater is patch
7: base_fins is patch

Constructing mesh with non-default patches of size:
    inlet_fluid	35
    outlet_fluid	26
    walls_fluid	1307
    walls_heater	200
    base_fins	428

Read 18013 cells and 3418 boundary faces.

Processing tag:2467
Starting reading patches at line 51320.
For group 1 named heater trying to read 596 patch face indices.
For group 2 named fluid trying to read 14777 patch face indices.
For group 3 named fins trying to read 2640 patch face indices.
For group 4 named inlet_fluid trying to read 35 patch face indices.
For group 5 named outlet_fluid trying to read 26 patch face indices.
For group 6 named walls_fluid trying to read 1305 patch face indices.
For group 7 named walls_heater trying to read 200 patch face indices.
For group 8 named base_fins trying to read 416 patch face indices.

Of 3418 so-called boundary faces 1436 belong to two cells and are therefore internal
Sorting boundary faces according to group (patch)
0: heater is cellZone
1: fluid is cellZone
2: fins is cellZone
3: inlet_fluid is patch
4: outlet_fluid is patch
5: walls_fluid is patch
6: walls_heater is Adding cell and face zones
 Cell Zone fluid 	14407
 Cell Zone heater 	615
 Cell Zone fins 	2628
patch

7: base_fins is patch

Constructing mesh with non-default patches of size:
    inlet_fluid	35
    outlet_fluid	26
    walls_fluid	1305
    walls_heater	200
    base_fins	416

End

/*---------------------------------------------------------------------------*\
  =========                 |
  \\      /  F ield         | OpenFOAM: The Open Source CFD Toolbox
   \\    /   O peration     | Website:  https://openfoam.org
    \\  /    A nd           | Version:  10
     \\/     M anipulation  |
\*---------------------------------------------------------------------------*/
Build  : 10-c4cf895ad8fa
Exec   : ideasUnvToFoam mesh.unv
Date   : Nov 10 2023
Time   : 00:25:41
Host   : "alexesn"
PID    : 18035
I/O    : uncollated
Case   : /home/alexesn/FOAM_project/heatExchanger/all_auto/case_5_5_0
nProcs : 1
sigFpe : Enabling floating point exception trapping (FOAM_SIGFPE).
fileModificationChecking : Monitoring run-time modified files using timeStampMaster (fileModificationSkew 10)
allowSystemOperations : Allowing user-supplied system call operations

// * * * * * * * * * * * * * * * * * * * * * * * * * * * * * * * * * * * * * //
Create time

Processing tag:164
Starting reading units at line 3.
l:1
units:"  SI: Meter (newton)"
unitType:2
Unit factors:
    Length scale       : 1
    Force scale        : 1
    Temperature scale  : 1
    Temperature offset : 273.15


Processing tag:2420
Skipping tag 2420 on line 9
Skipping section at line 9.

Processing tag:2411
Starting reading points at line 20.
Read 3627 points.

Processing tag:2412
Starting reading cells at line 7277.
First occurrence of element type 11 for cell 1 at line 7278
First occurrence of element type 41 for cell 409 at line 8502
First occurrence of element type 111 for cell 3847 at line 15378
/*---------------------------------------------------------------------------*\
  =========                 |
  \\      /  F ield         | OpenFOAM: The Open Source CFD Toolbox
   \\    /   O peration     | Website:  https://openfoam.org
    \\  /    A nd           | Version:  10
     \\/     M anipulation  |
\*---------------------------------------------------------------------------*/
Build  : 10-c4cf895ad8fa
Exec   : transformPoints scale=(0.001 0.001 0.001)
Date   : Nov 10 2023
Time   : 00:25:41
Host   : "alexesn"
PID    : 18036
I/O    : uncollated
Case   : /home/alexesn/FOAM_project/heatExchanger/all_auto/case_0_0_0
nProcs : 1
sigFpe : Enabling floating point exception trapping (FOAM_SIGFPE).
fileModificationChecking : Monitoring run-time modified files using timeStampMaster (fileModificationSkew 10)
allowSystemOperations : Allowing user-supplied system call operations

// * * * * * * * * * * * * * * * * * * * * * * * * * * * * * * * * * * * * * //
Create time

Writing points into directory "/home/alexesn/FOAM_project/heatExchanger/all_auto/case_0_0_0/constant/polyMesh"

End

Adding cell and face zones
 Cell Zone fluid 	14777
 Cell Zone heater 	596
 Cell Zone fins 	2640

End

/*---------------------------------------------------------------------------*\
  =========                 |
  \\      /  F ield         | OpenFOAM: The Open Source CFD Toolbox
   \\    /   O peration     | Website:  https://openfoam.org
    \\  /    A nd           | Version:  10
     \\/     M anipulation  |
\*---------------------------------------------------------------------------*/
Build  : 10-c4cf895ad8fa
Exec   : splitMeshRegions -cellZones -overwrite
Date   : Nov 10 2023
Time   : 00:25:41
Host   : "alexesn"
PID    : 18037
I/O    : uncollated
Case   : /home/alexesn/FOAM_project/heatExchanger/all_auto/case_0_0_0
nProcs : 1
sigFpe : Enabling floating point exception trapping (FOAM_SIGFPE).
fileModificationChecking : Monitoring run-time modified files using timeStampMaster (fileModificationSkew 10)
allowSystemOperations : Allowing user-supplied system call operations

// * * * * * * * * * * * * * * * * * * * * * * * * * * * * * * * * * * * * * //
Create time

Create mesh for time = 0

Creating single patch per inter-region interface.

/*---------------------------------------------------------------------------*\
  =========                 |
  \\      /  F ield         | OpenFOAM: The Open Source CFD Toolbox
   \\    /   O peration     | Website:  https://openfoam.org
    \\  /    A nd           | Version:  10
     \\/     M anipulation  |
\*---------------------------------------------------------------------------*/
Build  : 10-c4cf895ad8fa
Exec   : transformPoints scale=(0.001 0.001 0.001)
Date   : Nov 10 2023
Time   : 00:25:41
Host   : "alexesn"
PID    : 18038
I/O    : uncollated
Case   : /home/alexesn/FOAM_project/heatExchanger/all_auto/case_0_5_0
nProcs : 1
sigFpe : Enabling floating point exception trapping (FOAM_SIGFPE).
fileModificationChecking : Monitoring run-time modified files using timeStampMaster (fileModificationSkew 10)
allowSystemOperations : Allowing user-supplied system call operations

// * * * * * * * * * * * * * * * * * * * * * * * * * * * * * * * * * * * * * //
Create time

Writing points into directory "/home/alexesn/FOAM_project/heatExchanger/all_auto/case_0_5_0/constant/polyMesh"

End

Trying to match regions to existing cell zones.


Number of regions:3

Writing region per cell file (for manual decomposition) to "constant/cellToRegion"

Writing region per cell as volScalarField to "0/cellToRegion"

Region	Cells
------	-----
0	14407
1	615
2	2628

Region	Zone	Name
------	----	----
0	0	fluid
1	1	heater
2	2	fins

Sizes of interfaces between regions:

Interface	Region	Region	Faces
---------	------	------	-----
0		1	2	56
1		0	2	1374

Reading geometric fields

Reading volScalarField cellToRegion


Adding patches


Adding patches

For interface between region heater and fins added patches
    5	heater_to_fins
    6	fins_to_heater
For interface between region fluid and fins added patches
    7	fluid_to_fins
    8	fins_to_fluid

Region 0
-------- 
Creating mesh for region 0 fluid
Testing:"/home/alexesn/FOAM_project/heatExchanger/all_auto/case_0_0_0/system/fluid/fvSchemes"
Read 18157 cells and 3438 boundary faces.

Processing tag:2467
Starting reading patches at line 51694.
For group 1 named heater trying to read 609 patch face indices.
For group 2 named fluid trying to read 14818 patch face indices.
/*---------------------------------------------------------------------------*\
  =========                 |
  \\      /  F ield         | OpenFOAM: The Open Source CFD Toolbox
   \\    /   O peration     | Website:  https://openfoam.org
    \\  /    A nd           | Version:  10
     \\/     M anipulation  |
\*---------------------------------------------------------------------------*/
Build  : 10-c4cf895ad8fa
Exec   : splitMeshRegions -cellZones -overwrite
Date   : Nov 10 2023
Time   : 00:25:41
Host   : "alexesn"
PID    : 18039
I/O    : uncollated
Case   : /home/alexesn/FOAM_project/heatExchanger/all_auto/case_0_5_0
nProcs : 1
sigFpe : Enabling floating point exception trapping (FOAM_SIGFPE).
fileModificationChecking : Monitoring run-time modified files using timeStampMaster (fileModificationSkew 10)
allowSystemOperations : Allowing user-supplied system call operations

// * * * * * * * * * * * * * * * * * * * * * * * * * * * * * * * * * * * * * //
Create time

Create mesh for time = 0

Mapping fields
Mapping field cellToRegion
Deleting empty patches
Writing new mesh
Creating single patch per inter-region interface.

Writing addressing to base mesh
Writing map pointRegionAddressing from region0 points back to base mesh.
Writing map faceRegionAddressing from region0 faces back to base mesh.
Writing map cellRegionAddressing from region0 cells back to base mesh.

Region 1
-------- 
Creating mesh for region 1 heater
Testing:"/home/alexesn/FOAM_project/heatExchanger/all_auto/case_0_0_0/system/heater/fvSchemes"
For group 3 named fins trying to read 2730 patch face indices.
For group 4 named inlet_fluid trying to read 35 patch face indices.
For group 5 named outlet_fluid trying to read 26 patch face indices.
For group 6 named walls_fluid trying to read 1291 patch face indices.
For group 7 named walls_heater trying to read 200 patch face indices.
For group 8 named base_fins trying to read 430 patch face indices.

Mapping fields
Mapping field cellToRegion
Deleting empty patches
Writing new mesh
Writing addressing to base mesh
Writing map pointRegionAddressing from region1 points back to base mesh.
Writing map faceRegionAddressing from region1 faces back to base mesh.
Writing map cellRegionAddressing from region1 cells back to base mesh.

Region 2
-------- 
Creating mesh for region 2 fins
Testing:"/home/alexesn/FOAM_project/heatExchanger/all_auto/case_0_0_0/system/fins/fvSchemes"
Mapping fields
Mapping field cellToRegion
Deleting empty patches
Writing new mesh
Trying to match regions to existing cell zones.


Number of regions:3

Writing region per cell file (for manual decomposition) to "constant/cellToRegion"

Writing region per cell as volScalarField to "0/cellToRegion"

Region	Cells
------	-----
Writing addressing to base mesh
0	596
1	14777
2	2640

Region	Zone	Name
------	----	----
0	1	heater
1	0	fluid
2	2	fins

Writing map pointRegionAddressing from region2 points back to base mesh.
Writing map faceRegionAddressing from region2 faces back to base mesh.
Writing map cellRegionAddressing from region2 cells back to base mesh.
Sizes of interfaces between regions:

Interface	Region	Region	Faces
---------	------	------	-----
0		1	2	1384
1		0	2	52

End

Reading geometric fields

Reading volScalarField cellToRegion


Adding patches


Adding patches

For interface between region fluid and fins added patches
    5	fluid_to_fins
    6	fins_to_fluid
For interface between region heater and fins added patches
    7	heater_to_fins
    8	fins_to_heater

Region 0
-------- 
Creating mesh for region 0 heater
Testing:"/home/alexesn/FOAM_project/heatExchanger/all_auto/case_0_5_0/system/heater/fvSchemes"
Of 3438 so-called boundary faces 1456 belong to two cells and are therefore internal
Sorting boundary faces according to group (patch)
0: heater is cellZone
1: fluid is cellZone
2: fins is cellZone
3: inlet_fluid is patch
4: outlet_fluid is patch
5: walls_fluid is patch
6: walls_heater is patch
7: base_fins is patch

Constructing mesh with non-default patches of size:
    inlet_fluid	35
    outlet_fluid	26
    walls_fluid	1291
    walls_heater	200
    base_fins	430

Created 'case_0_0_0{fluid}.OpenFOAM'
Created 'case_0_0_0{heater}.OpenFOAM'
Created 'case_0_0_0{fins}.OpenFOAM'
Mapping fields
Mapping field cellToRegion
Deleting empty patches
Writing new mesh
Writing addressing to base mesh
Writing map pointRegionAddressing from region0 points back to base mesh.
Writing map faceRegionAddressing from region0 faces back to base mesh.
Writing map cellRegionAddressing from region0 cells back to base mesh.

Region 1
-------- 
Creating mesh for region 1 fluid
Testing:"/home/alexesn/FOAM_project/heatExchanger/all_auto/case_0_5_0/system/fluid/fvSchemes"
Mapping fields
Mapping field cellToRegion
Deleting empty patches
Writing new mesh
Writing addressing to base mesh
Writing map pointRegionAddressing from region1 points back to base mesh.
Writing map faceRegionAddressing from region1 faces back to base mesh.
Writing map cellRegionAddressing from region1 cells back to base mesh.

Region 2
-------- 
Creating mesh for region 2 fins
Testing:"/home/alexesn/FOAM_project/heatExchanger/all_auto/case_0_5_0/system/fins/fvSchemes"
Mapping fields
Mapping field cellToRegion
Deleting empty patches
Writing new mesh
Writing addressing to base mesh
Writing map pointRegionAddressing from region2 points back to base mesh.
Writing map faceRegionAddressing from region2 faces back to base mesh.
Writing map cellRegionAddressing from region2 cells back to base mesh.
End

Adding cell and face zones
 Cell Zone fluid 	14818
 Cell Zone heater 	609
 Cell Zone fins 	2730

Created 'case_0_5_0{fluid}.OpenFOAM'
End

Created 'case_0_5_0{heater}.OpenFOAM'
Created 'case_0_5_0{fins}.OpenFOAM'
/*---------------------------------------------------------------------------*\
  =========                 |
  \\      /  F ield         | OpenFOAM: The Open Source CFD Toolbox
   \\    /   O peration     | Website:  https://openfoam.org
    \\  /    A nd           | Version:  10
     \\/     M anipulation  |
\*---------------------------------------------------------------------------*/
Build  : 10-c4cf895ad8fa
Exec   : transformPoints scale=(0.001 0.001 0.001)
Date   : Nov 10 2023
Time   : 00:25:41
Host   : "alexesn"
PID    : 18054
I/O    : uncollated
Case   : /home/alexesn/FOAM_project/heatExchanger/all_auto/case_5_5_0
nProcs : 1
sigFpe : Enabling floating point exception trapping (FOAM_SIGFPE).
fileModificationChecking : Monitoring run-time modified files using timeStampMaster (fileModificationSkew 10)
allowSystemOperations : Allowing user-supplied system call operations

// * * * * * * * * * * * * * * * * * * * * * * * * * * * * * * * * * * * * * //
Create time

Writing points into directory "/home/alexesn/FOAM_project/heatExchanger/all_auto/case_5_5_0/constant/polyMesh"

End

/*---------------------------------------------------------------------------*\
  =========                 |
  \\      /  F ield         | OpenFOAM: The Open Source CFD Toolbox
   \\    /   O peration     | Website:  https://openfoam.org
    \\  /    A nd           | Version:  10
     \\/     M anipulation  |
\*---------------------------------------------------------------------------*/
Build  : 10-c4cf895ad8fa
Exec   : chtMultiRegionFoam
Date   : Nov 10 2023
Time   : 00:25:41
Host   : "alexesn"
PID    : 18046
I/O    : uncollated
Case   : /home/alexesn/FOAM_project/heatExchanger/all_auto/case_0_0_0
nProcs : 1
sigFpe : Enabling floating point exception trapping (FOAM_SIGFPE).
fileModificationChecking : Monitoring run-time modified files using timeStampMaster (fileModificationSkew 10)
allowSystemOperations : Allowing user-supplied system call operations

// * * * * * * * * * * * * * * * * * * * * * * * * * * * * * * * * * * * * * //
Create time

Create fluid mesh for region fluid for time = 0

Create solid mesh for region fins for time = 0

Create solid mesh for region heater for time = 0


PIMPLE: Region fluid
PIMPLE: No convergence criteria found


PIMPLE: Region fins
PIMPLE: No convergence criteria found


PIMPLE: Region heater
PIMPLE: No convergence criteria found


PIMPLE: Operating solver in steady-state mode with 1 outer corrector
PIMPLE: Operating solver in SIMPLE mode


*** Reading fluid mesh thermophysical properties for region fluid

    Adding to thermoFluid

Selecting thermodynamics package 
{
    type            heRhoThermo;
    mixture         pureMixture;
    transport       const;
    thermo          hConst;
    equationOfState rhoConst;
    specie          specie;
    energy          sensibleEnthalpy;
}

    Adding to rhoFluid

    Adding to UFluid

    Adding to phiFluid

    Adding to gFluid

    Adding to hRefFluid

    Adding to pRefFluid

    Adding to ghFluid

    Adding to ghfFluid

    Adding to turbulenceFluid

Selecting turbulence model type laminar
Selecting laminar stress model Stokes
    Adding to thermophysicalTransport

Selecting thermophysical transport type laminar
Selecting default laminar thermophysical transport model unityLewisFourier
    Adding to reactionFluid

Combustion model not active: combustionProperties not found
Selecting combustion model none
    Adding to KFluid

    Adding to dpdtFluid

    Adding to fieldsFluid

    Adding MRF

No MRF models present

    Adding fvModelsFluid

    Adding fvConstraintsFluid

Creating fvConstraints from "system/fvConstraints"

Selecting finite volume constraint type limitTemperature
    Name: limitT
    - selecting all cells
    - selected 14407 cell(s) with volume 0.00149763
*** Reading solid mesh thermophysical properties for region fins

    Adding to thermoSolid

Selecting thermodynamics package 
{
    type            heSolidThermo;
    mixture         pureMixture;
    transport       constIsoSolid;
    thermo          eConst;
    equationOfState rhoConst;
    specie          specie;
    energy          sensibleInternalEnergy;
}

    Adding to fvModelsSolid

    Adding fvConstraintsSolid

*** Reading solid mesh thermophysical properties for region heater

    Adding to thermoSolid

Selecting thermodynamics package 
{
    type            heSolidThermo;
    mixture         pureMixture;
    transport       constIsoSolid;
    thermo          eConst;
    equationOfState rhoConst;
    specie          specie;
    energy          sensibleInternalEnergy;
}

    Adding to fvModelsSolid

Creating fvModels from "constant/fvModels"

Selecting finite volume model type heatSource
    Name: energySource
    - selecting all cells
    - selected 615 cell(s) with volume 1e-06
    Adding fvConstraintsSolid

Region: fluid Courant Number mean: 1340.04 max: 41516.1
Region: fins Diffusion Number mean: 168.476 max: 16982.3
Region: heater Diffusion Number mean: 71.1115 max: 535.043








surfaceFieldValue averageTempHeaterFinInterface:
    total faces  = 56
    total area   = 0.0001


volFieldValue volAvgFinTemperature write:
    volAverage() of T = 296.9

volFieldValue volAvgHeaterTemperature write:
    volAverage() of T = 296.9

surfaceFieldValue averageTempHeaterFinInterface write:
    areaAverage(heater_to_fins) of T = 296.9

Region: fluid Courant Number mean: 1340.04 max: 41516.1
Region: fins Diffusion Number mean: 168.476 max: 16982.3
Region: heater Diffusion Number mean: 71.1115 max: 535.043
Time = 1s


Solving for solid region fins
/*---------------------------------------------------------------------------*\
  =========                 |
  \\      /  F ield         | OpenFOAM: The Open Source CFD Toolbox
   \\    /   O peration     | Website:  https://openfoam.org
    \\  /    A nd           | Version:  10
     \\/     M anipulation  |
\*---------------------------------------------------------------------------*/
Build  : 10-c4cf895ad8fa
Exec   : splitMeshRegions -cellZones -overwrite
Date   : Nov 10 2023
Time   : 00:25:41
Host   : "alexesn"
PID    : 18055
I/O    : uncollated
Case   : /home/alexesn/FOAM_project/heatExchanger/all_auto/case_5_5_0
nProcs : 1
sigFpe : Enabling floating point exception trapping (FOAM_SIGFPE).
fileModificationChecking : Monitoring run-time modified files using timeStampMaster (fileModificationSkew 10)
allowSystemOperations : Allowing user-supplied system call operations

// * * * * * * * * * * * * * * * * * * * * * * * * * * * * * * * * * * * * * //
Create time

Create mesh for time = 0

Creating single patch per inter-region interface.

GAMG:  Solving for e, Initial residual = 0.98253, Final residual = 0.0421841, No Iterations 1
Min/max T:296.9 296.9

Solving for solid region heater
GAMG:  Solving for e, Initial residual = 1, Final residual = 0.0503766, No Iterations 3
Min/max T:296.9 314.069

Solving for fluid region fluid
/*---------------------------------------------------------------------------*\
  =========                 |
  \\      /  F ield         | OpenFOAM: The Open Source CFD Toolbox
   \\    /   O peration     | Website:  https://openfoam.org
    \\  /    A nd           | Version:  10
     \\/     M anipulation  |
\*---------------------------------------------------------------------------*/
Build  : 10-c4cf895ad8fa
Exec   : chtMultiRegionFoam
Date   : Nov 10 2023
Time   : 00:25:41
Host   : "alexesn"
PID    : 18053
I/O    : uncollated
Case   : /home/alexesn/FOAM_project/heatExchanger/all_auto/case_0_5_0
nProcs : 1
sigFpe : Enabling floating point exception trapping (FOAM_SIGFPE).
fileModificationChecking : Monitoring run-time modified files using timeStampMaster (fileModificationSkew 10)
allowSystemOperations : Allowing user-supplied system call operations

// * * * * * * * * * * * * * * * * * * * * * * * * * * * * * * * * * * * * * //
Create time

Create fluid mesh for region fluid for time = 0

Create solid mesh for region fins for time = 0

DILUPBiCGStab:  Solving for Ux, Initial residual = 1, Final residual = 0.0250179, No Iterations 1
DILUPBiCGStab:  Solving for Uy, Initial residual = 1, Final residual = 0.0328591, No Iterations 1
DILUPBiCGStab:  Solving for Uz, Initial residual = 1, Final residual = 0.0305661, No Iterations 1
Create solid mesh for region heater for time = 0


PIMPLE: Region fluid
PIMPLE: No convergence criteria found


PIMPLE: Region fins
PIMPLE: No convergence criteria found


PIMPLE: Region heater
PIMPLE: No convergence criteria found


PIMPLE: Operating solver in steady-state mode with 1 outer corrector
PIMPLE: Operating solver in SIMPLE mode


*** Reading fluid mesh thermophysical properties for region fluid

    Adding to thermoFluid

Selecting thermodynamics package 
{
    type            heRhoThermo;
    mixture         pureMixture;
    transport       const;
    thermo          hConst;
    equationOfState rhoConst;
    specie          specie;
    energy          sensibleEnthalpy;
}

    Adding to rhoFluid

    Adding to UFluid

    Adding to phiFluid

    Adding to gFluid

    Adding to hRefFluid

    Adding to pRefFluid

    Adding to ghFluid

    Adding to ghfFluid

    Adding to turbulenceFluid

Selecting turbulence model type laminar
Selecting laminar stress model Stokes
    Adding to thermophysicalTransport

Selecting thermophysical transport type laminar
Selecting default laminar thermophysical transport model unityLewisFourier
    Adding to reactionFluid

Combustion model not active: combustionProperties not found
Selecting combustion model none
    Adding to KFluid

    Adding to dpdtFluid

    Adding to fieldsFluid

    Adding MRF

No MRF models present

    Adding fvModelsFluid

    Adding fvConstraintsFluid

Creating fvConstraints from "system/fvConstraints"

Selecting finite volume constraint type limitTemperature
    Name: limitT
    - selecting all cells
    - selected 14777 cell(s) with volume 0.00149763
*** Reading solid mesh thermophysical properties for region fins

    Adding to thermoSolid

Selecting thermodynamics package 
{
    type            heSolidThermo;
    mixture         pureMixture;
    transport       constIsoSolid;
    thermo          eConst;
    equationOfState rhoConst;
    specie          specie;
    energy          sensibleInternalEnergy;
}

DILUPBiCGStab:  Solving for h, Initial residual = 1, Final residual = 0.0712938, No Iterations 1
    Adding to fvModelsSolid

    Adding fvConstraintsSolid

*** Reading solid mesh thermophysical properties for region heater

    Adding to thermoSolid

Min/max T:295.565 297.757
Selecting thermodynamics package 
{
    type            heSolidThermo;
    mixture         pureMixture;
    transport       constIsoSolid;
    thermo          eConst;
    equationOfState rhoConst;
    specie          specie;
    energy          sensibleInternalEnergy;
}

    Adding to fvModelsSolid

Creating fvModels from "constant/fvModels"

Selecting finite volume model type heatSource
    Name: energySource
    - selecting all cells
    - selected 596 cell(s) with volume 1e-06
    Adding fvConstraintsSolid

Region: fluid Courant Number mean: 1346.17 max: 36143.4
Region: fins Diffusion Number mean: 167.459 max: 3529.82
Region: heater Diffusion Number mean: 69.344 max: 572.065
Trying to match regions to existing cell zones.


Number of regions:3

Writing region per cell file (for manual decomposition) to "constant/cellToRegion"

Writing region per cell as volScalarField to "0/cellToRegion"

Region	Cells
------	-----
0	609
1	14818
2	2730

Region	Zone	Name
------	----	----
0	1	heater
1	0	fluid
2	2	fins

Sizes of interfaces between regions:

Interface	Region	Region	Faces
---------	------	------	-----
0		1	2	1404
1		0	2	52

Reading geometric fields

Reading volScalarField cellToRegion


Adding patches


Adding patches

For interface between region fluid and fins added patches
    5	fluid_to_fins
    6	fins_to_fluid
For interface between region heater and fins added patches
    7	heater_to_fins
    8	fins_to_heater

Region 0
-------- 
Creating mesh for region 0 heater
Testing:"/home/alexesn/FOAM_project/heatExchanger/all_auto/case_5_5_0/system/heater/fvSchemes"








surfaceFieldValue averageTempHeaterFinInterface:
    total faces  = 52
    total area   = 0.0001


volFieldValue volAvgFinTemperature write:
    volAverage() of T = 296.9

volFieldValue volAvgHeaterTemperature write:
    volAverage() of T = 296.9

surfaceFieldValue averageTempHeaterFinInterface write:
    areaAverage(heater_to_fins) of T = 296.9

Region: fluid Courant Number mean: 1346.17 max: 36143.4
Region: fins Diffusion Number mean: 167.459 max: 3529.82
Region: heater Diffusion Number mean: 69.344 max: 572.065
Time = 1s


Solving for solid region fins
Mapping fields
Mapping field cellToRegion
Deleting empty patches
Writing new mesh
Writing addressing to base mesh
Writing map pointRegionAddressing from region0 points back to base mesh.
Writing map faceRegionAddressing from region0 faces back to base mesh.
Writing map cellRegionAddressing from region0 cells back to base mesh.

Region 1
-------- 
Creating mesh for region 1 fluid
Testing:"/home/alexesn/FOAM_project/heatExchanger/all_auto/case_5_5_0/system/fluid/fvSchemes"
GAMG:  Solving for p_rgh, Initial residual = 1, Final residual = 0.00733166, No Iterations 7
GAMG:  Solving for e, Initial residual = 0.981378, Final residual = 0.0444849, No Iterations 1
Min/max T:296.9 296.9

Solving for solid region heater
GAMG:  Solving for e, Initial residual = 1, Final residual = 0.0518454, No Iterations 3
Min/max T:296.9 314.356

Solving for fluid region fluid
GAMG:  Solving for p_rgh, Initial residual = 0.557168, Final residual = 0.00336921, No Iterations 2
GAMG:  Solving for p_rgh, Initial residual = 0.0437132, Final residual = 0.000206108, No Iterations 3
time step continuity errors : sum local = 0.00645134, global = -0.00193016, cumulative = -0.00193016
Mapping fields
ExecutionTime = 0.083511 s  ClockTime = 0 s

Mapping field cellToRegion
Deleting empty patches
Writing new mesh
volFieldValue volAvgFinTemperature write:
    volAverage() of T = 296.9

volFieldValue volAvgHeaterTemperature write:
    volAverage() of T = 308.663

surfaceFieldValue averageTempHeaterFinInterface write:
    areaAverage(heater_to_fins) of T = 296.9

Region: fluid Courant Number mean: 1341.08 max: 53872.3
Region: fins Diffusion Number mean: 168.476 max: 16982.3
Region: heater Diffusion Number mean: 71.1115 max: 535.043
Time = 2s


Solving for solid region fins
GAMG:  Solving for e, Initial residual = 1, Final residual = 0.0289089, No Iterations 1
Writing addressing to base mesh
Writing map pointRegionAddressing from region1 points back to base mesh.
Min/max T:296.9 299.572

Solving for solid region heater
Writing map faceRegionAddressing from region1 faces back to base mesh.
DILUPBiCGStab:  Solving for Ux, Initial residual = 1, Final residual = 0.0246324, No Iterations 1
Writing map cellRegionAddressing from region1 cells back to base mesh.
GAMG:  Solving for e, Initial residual = 0.242705, Final residual = 0.00585272, No Iterations 1
Min/max T:298.795 316.591

Solving for fluid region fluid
DILUPBiCGStab:  Solving for Uy, Initial residual = 1, Final residual = 0.029051, No Iterations 1

Region 2
-------- 
Creating mesh for region 2 fins
Testing:"/home/alexesn/FOAM_project/heatExchanger/all_auto/case_5_5_0/system/fins/fvSchemes"
DILUPBiCGStab:  Solving for Uz, Initial residual = 1, Final residual = 0.0308747, No Iterations 1
Mapping fields
Mapping field cellToRegion
Deleting empty patches
Writing new mesh
Writing addressing to base mesh
Writing map pointRegionAddressing from region2 points back to base mesh.
Writing map faceRegionAddressing from region2 faces back to base mesh.
Writing map cellRegionAddressing from region2 cells back to base mesh.
DILUPBiCGStab:  Solving for h, Initial residual = 1, Final residual = 0.0698711, No Iterations 1
DILUPBiCGStab:  Solving for Ux, Initial residual = 0.384586, Final residual = 0.0167327, No Iterations 1
End

Min/max T:295.603 297.757
DILUPBiCGStab:  Solving for Uy, Initial residual = 0.382547, Final residual = 0.0160894, No Iterations 1
DILUPBiCGStab:  Solving for Uz, Initial residual = 0.398425, Final residual = 0.0174729, No Iterations 1
DILUPBiCGStab:  Solving for h, Initial residual = 0.130967, Final residual = 0.0102012, No Iterations 1
Min/max T:295.743 299.299
Created 'case_5_5_0{fluid}.OpenFOAM'
Created 'case_5_5_0{heater}.OpenFOAM'
Created 'case_5_5_0{fins}.OpenFOAM'
GAMG:  Solving for p_rgh, Initial residual = 0.291111, Final residual = 0.00149952, No Iterations 6
GAMG:  Solving for p_rgh, Initial residual = 1, Final residual = 0.00896643, No Iterations 7
GAMG:  Solving for p_rgh, Initial residual = 0.70724, Final residual = 0.00467942, No Iterations 2
GAMG:  Solving for p_rgh, Initial residual = 0.480191, Final residual = 0.00338159, No Iterations 2
GAMG:  Solving for p_rgh, Initial residual = 0.116239, Final residual = 0.00086074, No Iterations 3
time step continuity errors : sum local = 0.0158332, global = 0.00415628, cumulative = 0.00415628
GAMG:  Solving for p_rgh, Initial residual = 0.0420275, Final residual = 0.000198927, No Iterations 3
ExecutionTime = 0.129783 s  ClockTime = 0 s

time step continuity errors : sum local = 0.00670451, global = -0.00228098, cumulative = -0.00228098
volFieldValue volAvgFinTemperature write:
    volAverage() of T = 299.132

volFieldValue volAvgHeaterTemperature write:
    volAverage() of T = 311.123

surfaceFieldValue averageTempHeaterFinInterface write:
    areaAverage(heater_to_fins) of T = 299.191

Region: fluid Courant Number mean: 1340.88 max: 56888.6
Region: fins Diffusion Number mean: 168.476 max: 16982.3
Region: heater Diffusion Number mean: 71.1115 max: 535.043
Time = 3s


Solving for solid region fins
GAMG:  Solving for e, Initial residual = 0.556077, Final residual = 0.0109908, No Iterations 1
Min/max T:299.01 301.762

Solving for solid region heater
GAMG:  Solving for e, Initial residual = 0.0906695, Final residual = 0.00264433, No Iterations 1
Min/max T:301.038 319.224

Solving for fluid region fluid
ExecutionTime = 0.096017 s  ClockTime = 0 s

volFieldValue volAvgFinTemperature write:
    volAverage() of T = 296.9

volFieldValue volAvgHeaterTemperature write:
    volAverage() of T = 308.789

surfaceFieldValue averageTempHeaterFinInterface write:
    areaAverage(heater_to_fins) of T = 296.9

Region: fluid Courant Number mean: 1347.39 max: 57382.7
Region: fins Diffusion Number mean: 167.459 max: 3529.82
Region: heater Diffusion Number mean: 69.344 max: 572.065
Time = 2s


Solving for solid region fins
GAMG:  Solving for e, Initial residual = 1, Final residual = 0.0278445, No Iterations 1
Min/max T:296.9 299.555

Solving for solid region heater
GAMG:  Solving for e, Initial residual = 0.241604, Final residual = 0.0056784, No Iterations 1
Min/max T:298.833 316.81

Solving for fluid region fluid
DILUPBiCGStab:  Solving for Ux, Initial residual = 0.169427, Final residual = 0.00737311, No Iterations 1
DILUPBiCGStab:  Solving for Uy, Initial residual = 0.321995, Final residual = 0.0132061, No Iterations 1
DILUPBiCGStab:  Solving for Uz, Initial residual = 0.328203, Final residual = 0.0143449, No Iterations 1
DILUPBiCGStab:  Solving for h, Initial residual = 0.0846896, Final residual = 0.00756006, No Iterations 1
DILUPBiCGStab:  Solving for Ux, Initial residual = 0.365446, Final residual = 0.0163098, No Iterations 1
Min/max T:296.752 301.53
DILUPBiCGStab:  Solving for Uy, Initial residual = 0.389666, Final residual = 0.016529, No Iterations 1
DILUPBiCGStab:  Solving for Uz, Initial residual = 0.38977, Final residual = 0.0172135, No Iterations 1
DILUPBiCGStab:  Solving for h, Initial residual = 0.128733, Final residual = 0.0105771, No Iterations 1
Min/max T:295.783 299.3
GAMG:  Solving for p_rgh, Initial residual = 0.193645, Final residual = 0.00111944, No Iterations 6
GAMG:  Solving for p_rgh, Initial residual = 0.257383, Final residual = 0.00176052, No Iterations 6
GAMG:  Solving for p_rgh, Initial residual = 0.724018, Final residual = 0.00438568, No Iterations 2
GAMG:  Solving for p_rgh, Initial residual = 0.669178, Final residual = 0.00497742, No Iterations 2
GAMG:  Solving for p_rgh, Initial residual = 0.114135, Final residual = 0.00077583, No Iterations 3
time step continuity errors : sum local = 0.0056639, global = -0.00143492, cumulative = -0.00143492
ExecutionTime = 0.175865 s  ClockTime = 0 s

GAMG:  Solving for p_rgh, Initial residual = 0.116294, Final residual = 0.000921542, No Iterations 3
volFieldValue volAvgFinTemperature write:
    volAverage() of T = 301.324

volFieldValue volAvgHeaterTemperature write:
    volAverage() of T = 313.616

surfaceFieldValue averageTempHeaterFinInterface write:
    areaAverage(heater_to_fins) of T = 301.446

time step continuity errors : sum local = 0.0173749, global = 0.00438182, cumulative = 0.00438182
Region: fluid Courant Number mean: 1340.52 max: 57000.9
Region: fins Diffusion Number mean: 168.476 max: 16982.3
Region: heater Diffusion Number mean: 71.1115 max: 535.043
Time = 4s


Solving for solid region fins
GAMG:  Solving for e, Initial residual = 0.487664, Final residual = 0.0111268, No Iterations 1
Min/max T:301.212 304.013

Solving for solid region heater
GAMG:  Solving for e, Initial residual = 0.0793176, Final residual = 0.00157673, No Iterations 1
Min/max T:303.277 321.709

Solving for fluid region fluid
ExecutionTime = 0.141971 s  ClockTime = 0 s

volFieldValue volAvgFinTemperature write:
    volAverage() of T = 299.205

volFieldValue volAvgHeaterTemperature write:
    volAverage() of T = 311.305

surfaceFieldValue averageTempHeaterFinInterface write:
    areaAverage(heater_to_fins) of T = 299.292

Region: fluid Courant Number mean: 1347.16 max: 59670.5
Region: fins Diffusion Number mean: 167.459 max: 3529.82
Region: heater Diffusion Number mean: 69.344 max: 572.065
Time = 3s


Solving for solid region fins
GAMG:  Solving for e, Initial residual = 0.513897, Final residual = 0.00972505, No Iterations 1
Min/max T:299.127 301.883

Solving for solid region heater
GAMG:  Solving for e, Initial residual = 0.0910613, Final residual = 0.00214471, No Iterations 1
Min/max T:301.211 319.502

Solving for fluid region fluid
DILUPBiCGStab:  Solving for Ux, Initial residual = 0.0624363, Final residual = 0.00271719, No Iterations 1
DILUPBiCGStab:  Solving for Uy, Initial residual = 0.0940852, Final residual = 0.00401124, No Iterations 1
DILUPBiCGStab:  Solving for Uz, Initial residual = 0.0958698, Final residual = 0.00419225, No Iterations 1
DILUPBiCGStab:  Solving for Ux, Initial residual = 0.148912, Final residual = 0.00659632, No Iterations 1
DILUPBiCGStab:  Solving for Uy, Initial residual = 0.33347, Final residual = 0.0139115, No Iterations 1
DILUPBiCGStab:  Solving for Uz, Initial residual = 0.303636, Final residual = 0.0133132, No Iterations 1
DILUPBiCGStab:  Solving for h, Initial residual = 0.033522, Final residual = 0.00328808, No Iterations 1
DILUPBiCGStab:  Solving for h, Initial residual = 0.0803611, Final residual = 0.00758132, No Iterations 1
Min/max T:296.726 303.775
Min/max T:296.746 301.637
/*---------------------------------------------------------------------------*\
  =========                 |
  \\      /  F ield         | OpenFOAM: The Open Source CFD Toolbox
   \\    /   O peration     | Website:  https://openfoam.org
    \\  /    A nd           | Version:  10
     \\/     M anipulation  |
\*---------------------------------------------------------------------------*/
Build  : 10-c4cf895ad8fa
Exec   : chtMultiRegionFoam
Date   : Nov 10 2023
Time   : 00:25:41
Host   : "alexesn"
PID    : 18062
I/O    : uncollated
Case   : /home/alexesn/FOAM_project/heatExchanger/all_auto/case_5_5_0
nProcs : 1
sigFpe : Enabling floating point exception trapping (FOAM_SIGFPE).
fileModificationChecking : Monitoring run-time modified files using timeStampMaster (fileModificationSkew 10)
allowSystemOperations : Allowing user-supplied system call operations

// * * * * * * * * * * * * * * * * * * * * * * * * * * * * * * * * * * * * * //
Create time

Create fluid mesh for region fluid for time = 0

GAMG:  Solving for p_rgh, Initial residual = 0.193149, Final residual = 0.00130003, No Iterations 6
Create solid mesh for region fins for time = 0

Create solid mesh for region heater for time = 0

GAMG:  Solving for p_rgh, Initial residual = 0.168186, Final residual = 0.000941495, No Iterations 6
GAMG:  Solving for p_rgh, Initial residual = 0.677403, Final residual = 0.0046381, No Iterations 2

PIMPLE: Region fluid
PIMPLE: No convergence criteria found


PIMPLE: Region fins
PIMPLE: No convergence criteria found


PIMPLE: Region heater
PIMPLE: No convergence criteria found


PIMPLE: Operating solver in steady-state mode with 1 outer corrector
PIMPLE: Operating solver in SIMPLE mode


*** Reading fluid mesh thermophysical properties for region fluid

    Adding to thermoFluid

Selecting thermodynamics package 
{
    type            heRhoThermo;
    mixture         pureMixture;
    transport       const;
    thermo          hConst;
    equationOfState rhoConst;
    specie          specie;
    energy          sensibleEnthalpy;
}

GAMG:  Solving for p_rgh, Initial residual = 0.353837, Final residual = 0.00214936, No Iterations 2
GAMG:  Solving for p_rgh, Initial residual = 0.112904, Final residual = 0.000806694, No Iterations 3
    Adding to rhoFluid

    Adding to UFluid

time step continuity errors : sum local = 0.00611687, global = -0.00142782, cumulative = -0.00142782
    Adding to phiFluid

    Adding to gFluid

    Adding to hRefFluid

    Adding to pRefFluid

    Adding to ghFluid

    Adding to ghfFluid

    Adding to turbulenceFluid

Selecting turbulence model type laminar
Selecting laminar stress model Stokes
    Adding to thermophysicalTransport

Selecting thermophysical transport type laminar
Selecting default laminar thermophysical transport model unityLewisFourier
    Adding to reactionFluid

Combustion model not active: combustionProperties not found
Selecting combustion model none
ExecutionTime = 0.186662 s  ClockTime = 0 s

volFieldValue volAvgFinTemperature write:
    volAverage() of T = 301.5

volFieldValue volAvgHeaterTemperature write:
    volAverage() of T = 313.88

surfaceFieldValue averageTempHeaterFinInterface write:
    areaAverage(heater_to_fins) of T = 301.649

    Adding to KFluid

Region: fluid Courant Number mean: 1346.82 max: 60214.7
    Adding to dpdtFluid

Region: fins Diffusion Number mean: 167.459 max: 3529.82
    Adding to fieldsFluid

    Adding MRF

No MRF models present

Region: heater Diffusion Number mean: 69.344 max: 572.065
    Adding fvModelsFluid

Time = 4s

    Adding fvConstraintsFluid


Solving for solid region fins
Creating fvConstraints from "system/fvConstraints"

Selecting finite volume constraint type limitTemperature
    Name: limitT
    - selecting all cells
    - selected 14818 cell(s) with volume 0.00149763
*** Reading solid mesh thermophysical properties for region fins

    Adding to thermoSolid

Selecting thermodynamics package 
{
    type            heSolidThermo;
    mixture         pureMixture;
    transport       constIsoSolid;
    thermo          eConst;
    equationOfState rhoConst;
    specie          specie;
    energy          sensibleInternalEnergy;
}

GAMG:  Solving for e, Initial residual = 0.450456, Final residual = 0.0104474, No Iterations 1
Min/max T:301.43 304.251

Solving for solid region heater
GAMG:  Solving for p_rgh, Initial residual = 0.0469167, Final residual = 0.000312002, No Iterations 3
GAMG:  Solving for e, Initial residual = 0.0787458, Final residual = 0.00119382, No Iterations 1
Min/max T:303.549 322.031

Solving for fluid region fluid
time step continuity errors : sum local = 0.00223156, global = 0.000556962, cumulative = 0.000556962
    Adding to fvModelsSolid

    Adding fvConstraintsSolid

*** Reading solid mesh thermophysical properties for region heater

    Adding to thermoSolid

Selecting thermodynamics package 
{
    type            heSolidThermo;
    mixture         pureMixture;
    transport       constIsoSolid;
    thermo          eConst;
    equationOfState rhoConst;
    specie          specie;
    energy          sensibleInternalEnergy;
}

    Adding to fvModelsSolid

Creating fvModels from "constant/fvModels"

Selecting finite volume model type heatSource
    Name: energySource
    - selecting all cells
    - selected 609 cell(s) with volume 1e-06
    Adding fvConstraintsSolid

Region: fluid Courant Number mean: 1336.8 max: 35354.1
Region: fins Diffusion Number mean: 170.65 max: 3675.16
Region: heater Diffusion Number mean: 71.6151 max: 572.065
ExecutionTime = 0.231034 s  ClockTime = 0 s

volFieldValue volAvgFinTemperature write:
    volAverage() of T = 303.518

volFieldValue volAvgHeaterTemperature write:
    volAverage() of T = 316.015

surfaceFieldValue averageTempHeaterFinInterface write:
    areaAverage(heater_to_fins) of T = 303.702

Region: fluid Courant Number mean: 1340.36 max: 57819.1
Region: fins Diffusion Number mean: 168.476 max: 16982.3
Region: heater Diffusion Number mean: 71.1115 max: 535.043
Time = 5s


Solving for solid region fins
GAMG:  Solving for e, Initial residual = 0.460233, Final residual = 0.0122099, No Iterations 1
Min/max T:303.377 306.271

Solving for solid region heater
GAMG:  Solving for e, Initial residual = 0.0753929, Final residual = 0.000934799, No Iterations 1
Min/max T:305.524 324.1

Solving for fluid region fluid
DILUPBiCGStab:  Solving for Ux, Initial residual = 0.0558969, Final residual = 0.00249334, No Iterations 1
DILUPBiCGStab:  Solving for Uy, Initial residual = 0.0968635, Final residual = 0.00412146, No Iterations 1
DILUPBiCGStab:  Solving for Uz, Initial residual = 0.0908807, Final residual = 0.00405027, No Iterations 1








surfaceFieldValue averageTempHeaterFinInterface:
    total faces  = 52
    total area   = 0.0001


volFieldValue volAvgFinTemperature write:
    volAverage() of T = 296.9

volFieldValue volAvgHeaterTemperature write:
    volAverage() of T = 296.9

surfaceFieldValue averageTempHeaterFinInterface write:
    areaAverage(heater_to_fins) of T = 296.9

DILUPBiCGStab:  Solving for h, Initial residual = 0.0317546, Final residual = 0.00302591, No Iterations 1
Region: fluid Courant Number mean: 1336.8 max: 35354.1
Region: fins Diffusion Number mean: 170.65 max: 3675.16
Region: heater Diffusion Number mean: 71.6151 max: 572.065
Time = 1s


Solving for solid region fins
Min/max T:296.731 303.998
DILUPBiCGStab:  Solving for Ux, Initial residual = 0.0255289, Final residual = 0.00108856, No Iterations 1
DILUPBiCGStab:  Solving for Uy, Initial residual = 0.0520125, Final residual = 0.00198393, No Iterations 1
DILUPBiCGStab:  Solving for Uz, Initial residual = 0.0424379, Final residual = 0.00184918, No Iterations 1
GAMG:  Solving for e, Initial residual = 0.982658, Final residual = 0.0455555, No Iterations 1
Min/max T:296.9 296.9

Solving for solid region heater
GAMG:  Solving for e, Initial residual = 1, Final residual = 0.0624433, No Iterations 3
GAMG:  Solving for p_rgh, Initial residual = 0.158782, Final residual = 0.00105315, No Iterations 6
Min/max T:296.9 314.201

Solving for fluid region fluid
DILUPBiCGStab:  Solving for h, Initial residual = 0.0208089, Final residual = 0.00207048, No Iterations 1
Min/max T:296.84 306.018
GAMG:  Solving for p_rgh, Initial residual = 0.343592, Final residual = 0.00223863, No Iterations 2
GAMG:  Solving for p_rgh, Initial residual = 0.047333, Final residual = 0.000312816, No Iterations 3
time step continuity errors : sum local = 0.00224267, global = 0.000504501, cumulative = 0.000504501
ExecutionTime = 0.231883 s  ClockTime = 0 s

volFieldValue volAvgFinTemperature write:
    volAverage() of T = 303.802

volFieldValue volAvgHeaterTemperature write:
    volAverage() of T = 316.348

surfaceFieldValue averageTempHeaterFinInterface write:
    areaAverage(heater_to_fins) of T = 304.01

Region: fluid Courant Number mean: 1346.68 max: 60720.5
Region: fins Diffusion Number mean: 167.459 max: 3529.82
Region: heater Diffusion Number mean: 69.344 max: 572.065
Time = 5s


Solving for solid region fins
GAMG:  Solving for e, Initial residual = 0.422716, Final residual = 0.0114259, No Iterations 1
Min/max T:303.725 306.603

Solving for solid region heater
GAMG:  Solving for e, Initial residual = 0.0748904, Final residual = 0.000722956, No Iterations 1
Min/max T:305.892 324.484

Solving for fluid region fluid
GAMG:  Solving for p_rgh, Initial residual = 0.0914561, Final residual = 0.00089854, No Iterations 5
DILUPBiCGStab:  Solving for Ux, Initial residual = 1, Final residual = 0.0260162, No Iterations 1
GAMG:  Solving for p_rgh, Initial residual = 0.220535, Final residual = 0.00142111, No Iterations 2
DILUPBiCGStab:  Solving for Uy, Initial residual = 1, Final residual = 0.0278688, No Iterations 1
DILUPBiCGStab:  Solving for Uz, Initial residual = 1, Final residual = 0.0319993, No Iterations 1
DILUPBiCGStab:  Solving for Ux, Initial residual = 0.0228114, Final residual = 0.000993501, No Iterations 1
GAMG:  Solving for p_rgh, Initial residual = 0.0276482, Final residual = 0.000222421, No Iterations 3
DILUPBiCGStab:  Solving for Uy, Initial residual = 0.051283, Final residual = 0.00201561, No Iterations 1
time step continuity errors : sum local = 0.00110856, global = -0.000253321, cumulative = -0.000253321
DILUPBiCGStab:  Solving for Uz, Initial residual = 0.0402416, Final residual = 0.00175951, No Iterations 1
ExecutionTime = 0.291375 s  ClockTime = 0 s

volFieldValue volAvgFinTemperature write:
    volAverage() of T = 305.704

volFieldValue volAvgHeaterTemperature write:
    volAverage() of T = 318.35

surfaceFieldValue averageTempHeaterFinInterface write:
    areaAverage(heater_to_fins) of T = 305.959

Region: fluid Courant Number mean: 1340.15 max: 58212.8
Region: fins Diffusion Number mean: 168.476 max: 16982.3
Region: heater Diffusion Number mean: 71.1115 max: 535.043
Time = 6s

DILUPBiCGStab:  Solving for h, Initial residual = 0.0199327, Final residual = 0.00190813, No Iterations 1

Solving for solid region fins
Min/max T:296.835 306.345
GAMG:  Solving for e, Initial residual = 0.437559, Final residual = 0.0126927, No Iterations 1
Min/max T:305.51 308.527

Solving for solid region heater
GAMG:  Solving for e, Initial residual = 0.0734526, Final residual = 0.000558603, No Iterations 1
Min/max T:307.766 326.427

Solving for fluid region fluid
DILUPBiCGStab:  Solving for h, Initial residual = 1, Final residual = 0.0690159, No Iterations 1
Min/max T:295.58 297.757
DILUPBiCGStab:  Solving for Ux, Initial residual = 0.0122954, Final residual = 0.000531501, No Iterations 1
GAMG:  Solving for p_rgh, Initial residual = 0.0903801, Final residual = 0.000871923, No Iterations 5
DILUPBiCGStab:  Solving for Uy, Initial residual = 0.0256818, Final residual = 0.0010039, No Iterations 1
DILUPBiCGStab:  Solving for Uz, Initial residual = 0.0225327, Final residual = 0.000991263, No Iterations 1
DILUPBiCGStab:  Solving for h, Initial residual = 0.0147126, Final residual = 0.00144049, No Iterations 1
Min/max T:296.842 308.25
GAMG:  Solving for p_rgh, Initial residual = 0.221591, Final residual = 0.00145068, No Iterations 2
GAMG:  Solving for p_rgh, Initial residual = 1, Final residual = 0.00738745, No Iterations 7
GAMG:  Solving for p_rgh, Initial residual = 0.028535, Final residual = 0.000216395, No Iterations 3
time step continuity errors : sum local = 0.00104987, global = -0.000217107, cumulative = -0.000217107
GAMG:  Solving for p_rgh, Initial residual = 0.501452, Final residual = 0.00341792, No Iterations 2
ExecutionTime = 0.283241 s  ClockTime = 0 s

volFieldValue volAvgFinTemperature write:
    volAverage() of T = 306.09

volFieldValue volAvgHeaterTemperature write:
    volAverage() of T = 318.759

surfaceFieldValue averageTempHeaterFinInterface write:
    areaAverage(heater_to_fins) of T = 306.361

Region: fluid Courant Number mean: 1346.49 max: 60999.1
GAMG:  Solving for p_rgh, Initial residual = 0.0651938, Final residual = 0.000523824, No Iterations 5
Region: fins Diffusion Number mean: 167.459 max: 3529.82
Region: heater Diffusion Number mean: 69.344 max: 572.065
Time = 6s


Solving for solid region fins
GAMG:  Solving for e, Initial residual = 0.402193, Final residual = 0.0118681, No Iterations 1
Min/max T:305.968 308.94

Solving for solid region heater
GAMG:  Solving for e, Initial residual = 0.0730964, Final residual = 0.000427793, No Iterations 1
Min/max T:308.23 326.879

Solving for fluid region fluid
GAMG:  Solving for p_rgh, Initial residual = 0.0425422, Final residual = 0.00018787, No Iterations 3
time step continuity errors : sum local = 0.00616108, global = -0.00222078, cumulative = -0.00222078
GAMG:  Solving for p_rgh, Initial residual = 0.0798945, Final residual = 0.000506847, No Iterations 2
ExecutionTime = 0.124846 s  ClockTime = 0 s

volFieldValue volAvgFinTemperature write:
    volAverage() of T = 296.9

volFieldValue volAvgHeaterTemperature write:
    volAverage() of T = 308.647

surfaceFieldValue averageTempHeaterFinInterface write:
    areaAverage(heater_to_fins) of T = 296.9

Region: fluid Courant Number mean: 1337.99 max: 48056.9
Region: fins Diffusion Number mean: 170.65 max: 3675.16
Region: heater Diffusion Number mean: 71.6151 max: 572.065
Time = 2s


Solving for solid region fins
GAMG:  Solving for e, Initial residual = 1, Final residual = 0.0259705, No Iterations 1
GAMG:  Solving for p_rgh, Initial residual = 0.0097684, Final residual = 6.48505e-05, No Iterations 3
Min/max T:296.9 299.609

Solving for solid region heater
time step continuity errors : sum local = 0.000376206, global = 9.4717e-05, cumulative = 9.4717e-05
GAMG:  Solving for e, Initial residual = 0.245173, Final residual = 0.00566282, No Iterations 1
Min/max T:298.757 316.653

Solving for fluid region fluid
DILUPBiCGStab:  Solving for Ux, Initial residual = 0.0110887, Final residual = 0.000494843, No Iterations 1
DILUPBiCGStab:  Solving for Uy, Initial residual = 0.0249716, Final residual = 0.000995056, No Iterations 1
DILUPBiCGStab:  Solving for Uz, Initial residual = 0.0212323, Final residual = 0.000972086, No Iterations 1
ExecutionTime = 0.33617 s  ClockTime = 0 s

volFieldValue volAvgFinTemperature write:
    volAverage() of T = 307.878

volFieldValue volAvgHeaterTemperature write:
    volAverage() of T = 320.642

surfaceFieldValue averageTempHeaterFinInterface write:
    areaAverage(heater_to_fins) of T = 308.206

Region: fluid Courant Number mean: 1339.99 max: 58588.6
Region: fins Diffusion Number mean: 168.476 max: 16982.3
Region: heater Diffusion Number mean: 71.1115 max: 535.043
Time = 7s


Solving for solid region fins
GAMG:  Solving for e, Initial residual = 0.414927, Final residual = 0.0128423, No Iterations 1
Min/max T:307.625 310.768

Solving for solid region heater
GAMG:  Solving for e, Initial residual = 0.0720239, Final residual = 0.000334699, No Iterations 1
Min/max T:309.999 328.707

Solving for fluid region fluid
DILUPBiCGStab:  Solving for h, Initial residual = 0.0142641, Final residual = 0.00132778, No Iterations 1
Min/max T:296.827 308.677
DILUPBiCGStab:  Solving for Ux, Initial residual = 0.349595, Final residual = 0.0153245, No Iterations 1
DILUPBiCGStab:  Solving for Uy, Initial residual = 0.328908, Final residual = 0.0139671, No Iterations 1
DILUPBiCGStab:  Solving for Uz, Initial residual = 0.404094, Final residual = 0.0173169, No Iterations 1
DILUPBiCGStab:  Solving for Ux, Initial residual = 0.00650822, Final residual = 0.000267351, No Iterations 1
DILUPBiCGStab:  Solving for Uy, Initial residual = 0.0168054, Final residual = 0.000533177, No Iterations 1
DILUPBiCGStab:  Solving for h, Initial residual = 0.132464, Final residual = 0.0104632, No Iterations 1
DILUPBiCGStab:  Solving for Uz, Initial residual = 0.0109239, Final residual = 0.000421283, No Iterations 1
Min/max T:295.832 299.337
GAMG:  Solving for p_rgh, Initial residual = 0.0641735, Final residual = 0.000493475, No Iterations 5
DILUPBiCGStab:  Solving for h, Initial residual = 0.0113277, Final residual = 0.00105471, No Iterations 1
Min/max T:296.84 310.472
GAMG:  Solving for p_rgh, Initial residual = 0.0794429, Final residual = 0.000522274, No Iterations 2
GAMG:  Solving for p_rgh, Initial residual = 0.0100299, Final residual = 5.96283e-05, No Iterations 3
time step continuity errors : sum local = 0.000338574, global = 9.03154e-05, cumulative = 9.03154e-05
GAMG:  Solving for p_rgh, Initial residual = 0.250722, Final residual = 0.00148264, No Iterations 6
GAMG:  Solving for p_rgh, Initial residual = 0.0348646, Final residual = 0.000212331, No Iterations 5
ExecutionTime = 0.332717 s  ClockTime = 0 s

volFieldValue volAvgFinTemperature write:
    volAverage() of T = 308.361

volFieldValue volAvgHeaterTemperature write:
    volAverage() of T = 321.13

surfaceFieldValue averageTempHeaterFinInterface write:
    areaAverage(heater_to_fins) of T = 308.699

Region: fluid Courant Number mean: 1346.34 max: 61114.3
Region: fins Diffusion Number mean: 167.459 max: 3529.82
Region: heater Diffusion Number mean: 69.344 max: 572.065
Time = 7s


Solving for solid region fins
GAMG:  Solving for e, Initial residual = 0.383043, Final residual = 0.0120562, No Iterations 1
Min/max T:308.188 311.259

Solving for solid region heater
GAMG:  Solving for p_rgh, Initial residual = 0.0374129, Final residual = 0.00024302, No Iterations 2
GAMG:  Solving for p_rgh, Initial residual = 0.673383, Final residual = 0.00471031, No Iterations 2
GAMG:  Solving for e, Initial residual = 0.0717716, Final residual = 0.000253666, No Iterations 1
Min/max T:310.555 329.233

Solving for fluid region fluid
GAMG:  Solving for p_rgh, Initial residual = 0.00459479, Final residual = 2.63111e-05, No Iterations 3
time step continuity errors : sum local = 0.000140989, global = -9.71761e-06, cumulative = -9.71761e-06
GAMG:  Solving for p_rgh, Initial residual = 0.11332, Final residual = 0.000728072, No Iterations 3
time step continuity errors : sum local = 0.0136808, global = 0.00347992, cumulative = 0.00347992
ExecutionTime = 0.382532 s  ClockTime = 0 s

volFieldValue volAvgFinTemperature write:
    volAverage() of T = 310.035

volFieldValue volAvgHeaterTemperature write:
    volAverage() of T = 322.901

surfaceFieldValue averageTempHeaterFinInterface write:
    areaAverage(heater_to_fins) of T = 310.44

ExecutionTime = 0.178857 s  ClockTime = 0 s

Region: fluid Courant Number mean: 1339.83 max: 58890.6
Region: fins Diffusion Number mean: 168.476 max: 16982.3
volFieldValue volAvgFinTemperature write:
    volAverage() of T = 299.183

Region: heater Diffusion Number mean: 71.1115 max: 535.043
Time = 8s

volFieldValue volAvgHeaterTemperature write:
    volAverage() of T = 311.166

surfaceFieldValue averageTempHeaterFinInterface write:
    areaAverage(heater_to_fins) of T = 299.279


Solving for solid region fins
Region: fluid Courant Number mean: 1337.75 max: 49523.8
Region: fins Diffusion Number mean: 170.65 max: 3675.16
DILUPBiCGStab:  Solving for Ux, Initial residual = 0.00611007, Final residual = 0.000253999, No Iterations 1
Region: heater Diffusion Number mean: 71.6151 max: 572.065
Time = 3s


Solving for solid region fins
DILUPBiCGStab:  Solving for Uy, Initial residual = 0.0150927, Final residual = 0.000485355, No Iterations 1
GAMG:  Solving for e, Initial residual = 0.39236, Final residual = 0.0126777, No Iterations 1
Min/max T:309.722 312.993

Solving for solid region heater
GAMG:  Solving for e, Initial residual = 0.4842, Final residual = 0.0105264, No Iterations 1
GAMG:  Solving for e, Initial residual = 0.0709489, Final residual = 0.000201068, No Iterations 1
Min/max T:312.219 330.952

Solving for fluid region fluid
DILUPBiCGStab:  Solving for Uz, Initial residual = 0.0101867, Final residual = 0.0003899, No Iterations 1
Min/max T:299.078 301.937

Solving for solid region heater
GAMG:  Solving for e, Initial residual = 0.0914227, Final residual = 0.00252276, No Iterations 1
Min/max T:301.118 319.348

Solving for fluid region fluid
DILUPBiCGStab:  Solving for h, Initial residual = 0.0110319, Final residual = 0.000968502, No Iterations 1
Min/max T:296.824 310.992
DILUPBiCGStab:  Solving for Ux, Initial residual = 0.00524053, Final residual = 0.000227154, No Iterations 1
DILUPBiCGStab:  Solving for Uy, Initial residual = 0.0145707, Final residual = 0.000516608, No Iterations 1
DILUPBiCGStab:  Solving for Uz, Initial residual = 0.0109616, Final residual = 0.00046547, No Iterations 1
DILUPBiCGStab:  Solving for Ux, Initial residual = 0.142108, Final residual = 0.00618217, No Iterations 1
DILUPBiCGStab:  Solving for Uy, Initial residual = 0.23583, Final residual = 0.00972496, No Iterations 1
DILUPBiCGStab:  Solving for Uz, Initial residual = 0.339197, Final residual = 0.0144811, No Iterations 1
DILUPBiCGStab:  Solving for h, Initial residual = 0.00918553, Final residual = 0.000809945, No Iterations 1
Min/max T:296.82 312.691
GAMG:  Solving for p_rgh, Initial residual = 0.0345775, Final residual = 0.000193574, No Iterations 5
DILUPBiCGStab:  Solving for h, Initial residual = 0.0808102, Final residual = 0.00672945, No Iterations 1
Min/max T:296.775 301.649
GAMG:  Solving for p_rgh, Initial residual = 0.0373042, Final residual = 0.00024669, No Iterations 2
GAMG:  Solving for p_rgh, Initial residual = 0.0276329, Final residual = 0.00024914, No Iterations 4
GAMG:  Solving for p_rgh, Initial residual = 0.00471491, Final residual = 2.10337e-05, No Iterations 3
GAMG:  Solving for p_rgh, Initial residual = 0.0148553, Final residual = 0.000116749, No Iterations 2
time step continuity errors : sum local = 0.000110218, global = -2.57944e-05, cumulative = -2.57944e-05
GAMG:  Solving for p_rgh, Initial residual = 0.191705, Final residual = 0.00104625, No Iterations 6
ExecutionTime = 0.379715 s  ClockTime = 0 s

volFieldValue volAvgFinTemperature write:
    volAverage() of T = 310.613

volFieldValue volAvgHeaterTemperature write:
    volAverage() of T = 323.469

surfaceFieldValue averageTempHeaterFinInterface write:
    areaAverage(heater_to_fins) of T = 311.021

Region: fluid Courant Number mean: 1346.18 max: 61131.9
Region: fins Diffusion Number mean: 167.459 max: 3529.82
Region: heater Diffusion Number mean: 69.344 max: 572.065
Time = 8s


Solving for solid region fins
GAMG:  Solving for e, Initial residual = 0.364566, Final residual = 0.0120049, No Iterations 1
Min/max T:310.384 313.561

Solving for solid region heater
GAMG:  Solving for e, Initial residual = 0.0707589, Final residual = 0.000150221, No Iterations 1
Min/max T:312.866 331.555

Solving for fluid region fluid
GAMG:  Solving for p_rgh, Initial residual = 0.00188671, Final residual = 8.39062e-06, No Iterations 4
time step continuity errors : sum local = 4.69583e-05, global = -7.734e-06, cumulative = -7.734e-06
GAMG:  Solving for p_rgh, Initial residual = 0.669311, Final residual = 0.00444483, No Iterations 2
ExecutionTime = 0.424048 s  ClockTime = 0 s

volFieldValue volAvgFinTemperature write:
    volAverage() of T = 312.176

volFieldValue volAvgHeaterTemperature write:
    volAverage() of T = 325.133

surfaceFieldValue averageTempHeaterFinInterface write:
    areaAverage(heater_to_fins) of T = 312.66

Region: fluid Courant Number mean: 1339.68 max: 59140.6
Region: fins Diffusion Number mean: 168.476 max: 16982.3
Region: heater Diffusion Number mean: 71.1115 max: 535.043
Time = 9s


Solving for solid region fins
GAMG:  Solving for e, Initial residual = 0.370757, Final residual = 0.0123694, No Iterations 1
Min/max T:311.799 315.201

Solving for solid region heater
GAMG:  Solving for e, Initial residual = 0.0700769, Final residual = 0.000121614, No Iterations 1
Min/max T:314.426 333.17

Solving for fluid region fluid
GAMG:  Solving for p_rgh, Initial residual = 0.108078, Final residual = 0.000657938, No Iterations 3
time step continuity errors : sum local = 0.00509383, global = -0.00122349, cumulative = -0.00122349
DILUPBiCGStab:  Solving for Ux, Initial residual = 0.00488183, Final residual = 0.000216848, No Iterations 1
ExecutionTime = 0.229613 s  ClockTime = 0 s

volFieldValue volAvgFinTemperature write:
    volAverage() of T = 301.466

volFieldValue volAvgHeaterTemperature write:
    volAverage() of T = 313.752

surfaceFieldValue averageTempHeaterFinInterface write:
    areaAverage(heater_to_fins) of T = 301.628

Region: fluid Courant Number mean: 1337.42 max: 49399.3
DILUPBiCGStab:  Solving for Uy, Initial residual = 0.0132734, Final residual = 0.000476178, No Iterations 1
Region: fins Diffusion Number mean: 170.65 max: 3675.16
Region: heater Diffusion Number mean: 71.6151 max: 572.065
Time = 4s


Solving for solid region fins
DILUPBiCGStab:  Solving for Uz, Initial residual = 0.0101172, Final residual = 0.000446077, No Iterations 1
GAMG:  Solving for e, Initial residual = 0.426284, Final residual = 0.0105257, No Iterations 1
Min/max T:301.398 304.307

Solving for solid region heater
GAMG:  Solving for e, Initial residual = 0.0805342, Final residual = 0.00157531, No Iterations 1
Min/max T:303.481 321.905

Solving for fluid region fluid
DILUPBiCGStab:  Solving for h, Initial residual = 0.00906433, Final residual = 0.00075571, No Iterations 1
DILUPBiCGStab:  Solving for Ux, Initial residual = 0.00439593, Final residual = 0.000189689, No Iterations 1
DILUPBiCGStab:  Solving for Uy, Initial residual = 0.0119756, Final residual = 0.000423679, No Iterations 1
Min/max T:296.805 313.29
DILUPBiCGStab:  Solving for Uz, Initial residual = 0.00817017, Final residual = 0.000342009, No Iterations 1
DILUPBiCGStab:  Solving for h, Initial residual = 0.00776407, Final residual = 0.000653608, No Iterations 1
Min/max T:296.806 314.894
DILUPBiCGStab:  Solving for Ux, Initial residual = 0.0537108, Final residual = 0.0023653, No Iterations 1
DILUPBiCGStab:  Solving for Uy, Initial residual = 0.0736072, Final residual = 0.00311808, No Iterations 1
GAMG:  Solving for p_rgh, Initial residual = 0.0282343, Final residual = 0.000245086, No Iterations 4
DILUPBiCGStab:  Solving for Uz, Initial residual = 0.0973689, Final residual = 0.00420404, No Iterations 1
DILUPBiCGStab:  Solving for h, Initial residual = 0.0320511, Final residual = 0.00304253, No Iterations 1
GAMG:  Solving for p_rgh, Initial residual = 0.0210296, Final residual = 0.00012173, No Iterations 4
Min/max T:296.739 304.004
GAMG:  Solving for p_rgh, Initial residual = 0.0150722, Final residual = 0.000130004, No Iterations 2
GAMG:  Solving for p_rgh, Initial residual = 0.00757967, Final residual = 6.38053e-05, No Iterations 2
GAMG:  Solving for p_rgh, Initial residual = 0.00198189, Final residual = 1.78377e-05, No Iterations 3
time step continuity errors : sum local = 9.76735e-05, global = -1.29413e-05, cumulative = -1.29413e-05
ExecutionTime = 0.427553 s  ClockTime = 0 s

volFieldValue volAvgFinTemperature write:
    volAverage() of T = 312.846

volFieldValue volAvgHeaterTemperature write:
    volAverage() of T = 325.782

surfaceFieldValue averageTempHeaterFinInterface write:
    areaAverage(heater_to_fins) of T = 313.325

Region: fluid Courant Number mean: 1346.03 max: 61062.6
GAMG:  Solving for p_rgh, Initial residual = 0.000979056, Final residual = 4.61296e-06, No Iterations 4
Region: fins Diffusion Number mean: 167.459 max: 3529.82
Region: heater Diffusion Number mean: 69.344 max: 572.065
Time = 9s


Solving for solid region fins
time step continuity errors : sum local = 2.54711e-05, global = 4.80114e-06, cumulative = 4.80114e-06
GAMG:  Solving for e, Initial residual = 0.346892, Final residual = 0.0118162, No Iterations 1
Min/max T:312.556 315.845

Solving for solid region heater
GAMG:  Solving for e, Initial residual = 0.0699176, Final residual = 9.10684e-05, No Iterations 1
Min/max T:315.161 333.852

Solving for fluid region fluid
GAMG:  Solving for p_rgh, Initial residual = 0.160861, Final residual = 0.000805585, No Iterations 6
ExecutionTime = 0.469393 s  ClockTime = 0 s

volFieldValue volAvgFinTemperature write:
    volAverage() of T = 314.301

volFieldValue volAvgHeaterTemperature write:
    volAverage() of T = 327.343

surfaceFieldValue averageTempHeaterFinInterface write:
    areaAverage(heater_to_fins) of T = 314.864

Region: fluid Courant Number mean: 1339.53 max: 59350.1
Region: fins Diffusion Number mean: 168.476 max: 16982.3
Region: heater Diffusion Number mean: 71.1115 max: 535.043
Time = 10s


Solving for solid region fins
GAMG:  Solving for e, Initial residual = 0.350638, Final residual = 0.0119813, No Iterations 1
Min/max T:313.858 317.392

Solving for solid region heater
GAMG:  Solving for e, Initial residual = 0.069329, Final residual = 7.64677e-05, No Iterations 1
Min/max T:316.617 335.365

Solving for fluid region fluid
GAMG:  Solving for p_rgh, Initial residual = 0.334484, Final residual = 0.00220146, No Iterations 2
DILUPBiCGStab:  Solving for Ux, Initial residual = 0.00414843, Final residual = 0.000181895, No Iterations 1
GAMG:  Solving for p_rgh, Initial residual = 0.0454684, Final residual = 0.000274767, No Iterations 3
DILUPBiCGStab:  Solving for Uy, Initial residual = 0.0106637, Final residual = 0.000373233, No Iterations 1
time step continuity errors : sum local = 0.00201936, global = 0.000474796, cumulative = 0.000474796
DILUPBiCGStab:  Solving for Uz, Initial residual = 0.00752739, Final residual = 0.000318016, No Iterations 1
DILUPBiCGStab:  Solving for Ux, Initial residual = 0.00402267, Final residual = 0.000176026, No Iterations 1
DILUPBiCGStab:  Solving for Uy, Initial residual = 0.0111074, Final residual = 0.000418289, No Iterations 1
DILUPBiCGStab:  Solving for Uz, Initial residual = 0.00799072, Final residual = 0.000344947, No Iterations 1
ExecutionTime = 0.280464 s  ClockTime = 0 s

volFieldValue volAvgFinTemperature write:
    volAverage() of T = 303.76

volFieldValue volAvgHeaterTemperature write:
    volAverage() of T = 316.234

surfaceFieldValue averageTempHeaterFinInterface write:
    areaAverage(heater_to_fins) of T = 303.987

Region: fluid Courant Number mean: 1337.26 max: 49560.5
Region: fins Diffusion Number mean: 170.65 max: 3675.16
Region: heater Diffusion Number mean: 71.6151 max: 572.065
Time = 5s

DILUPBiCGStab:  Solving for h, Initial residual = 0.00772216, Final residual = 0.000617818, No Iterations 1

Solving for solid region fins
Min/max T:296.792 315.571
DILUPBiCGStab:  Solving for h, Initial residual = 0.00676106, Final residual = 0.000544995, No Iterations 1
GAMG:  Solving for e, Initial residual = 0.400114, Final residual = 0.0111344, No Iterations 1
Min/max T:303.686 306.664

Solving for solid region heater
Min/max T:296.789 317.081
GAMG:  Solving for e, Initial residual = 0.0766857, Final residual = 0.000984931, No Iterations 1
Min/max T:305.84 324.377

Solving for fluid region fluid
GAMG:  Solving for p_rgh, Initial residual = 0.0182146, Final residual = 0.000138898, No Iterations 3
GAMG:  Solving for p_rgh, Initial residual = 0.0222492, Final residual = 0.000117366, No Iterations 4
DILUPBiCGStab:  Solving for Ux, Initial residual = 0.0219383, Final residual = 0.000937647, No Iterations 1
DILUPBiCGStab:  Solving for Uy, Initial residual = 0.0378049, Final residual = 0.00143988, No Iterations 1
DILUPBiCGStab:  Solving for Uz, Initial residual = 0.0442847, Final residual = 0.00188268, No Iterations 1
GAMG:  Solving for p_rgh, Initial residual = 0.00405037, Final residual = 2.34147e-05, No Iterations 3
GAMG:  Solving for p_rgh, Initial residual = 0.0076343, Final residual = 6.64768e-05, No Iterations 2
DILUPBiCGStab:  Solving for h, Initial residual = 0.0197825, Final residual = 0.00194596, No Iterations 1
Min/max T:296.837 306.353
GAMG:  Solving for p_rgh, Initial residual = 0.000660611, Final residual = 4.25747e-06, No Iterations 3
time step continuity errors : sum local = 2.37962e-05, global = -8.18819e-08, cumulative = -8.18819e-08
GAMG:  Solving for p_rgh, Initial residual = 0.00105353, Final residual = 9.94465e-06, No Iterations 3
time step continuity errors : sum local = 5.37792e-05, global = 7.50772e-06, cumulative = 7.50772e-06
ExecutionTime = 0.513344 s  ClockTime = 0 s

volFieldValue volAvgFinTemperature write:
    volAverage() of T = 316.409

volFieldValue volAvgHeaterTemperature write:
    volAverage() of T = 329.533

surfaceFieldValue averageTempHeaterFinInterface write:
    areaAverage(heater_to_fins) of T = 317.053

Region: fluid Courant Number mean: 1339.39 max: 59520.7
Region: fins Diffusion Number mean: 168.476 max: 16982.3
Region: heater Diffusion Number mean: 71.1115 max: 535.043
Time = 11s


Solving for solid region fins
ExecutionTime = 0.477716 s  ClockTime = 0 s

volFieldValue volAvgFinTemperature write:
    volAverage() of T = 315.06

volFieldValue volAvgHeaterTemperature write:
    volAverage() of T = 328.072

surfaceFieldValue averageTempHeaterFinInterface write:
    areaAverage(heater_to_fins) of T = 315.613

GAMG:  Solving for e, Initial residual = 0.331981, Final residual = 0.0115571, No Iterations 1
Region: fluid Courant Number mean: 1345.89 max: 60935.6
Region: fins Diffusion Number mean: 167.459 max: 3529.82
Min/max T:315.898 319.567

Solving for solid region heater
Region: heater Diffusion Number mean: 69.344 max: 572.065
Time = 10s


Solving for solid region fins
GAMG:  Solving for e, Initial residual = 0.0686593, Final residual = 5.34076e-05, No Iterations 1
Min/max T:318.793 337.539

Solving for fluid region fluid
GAMG:  Solving for e, Initial residual = 0.329887, Final residual = 0.0115182, No Iterations 1
Min/max T:314.706 318.112

Solving for solid region heater
GAMG:  Solving for e, Initial residual = 0.0691811, Final residual = 6.0191e-05, No Iterations 1
Min/max T:317.438 336.125

Solving for fluid region fluid
GAMG:  Solving for p_rgh, Initial residual = 0.0910719, Final residual = 0.000742275, No Iterations 5
DILUPBiCGStab:  Solving for Ux, Initial residual = 0.0037327, Final residual = 0.000163522, No Iterations 1
GAMG:  Solving for p_rgh, Initial residual = 0.215856, Final residual = 0.00147713, No Iterations 2
DILUPBiCGStab:  Solving for Uy, Initial residual = 0.00998722, Final residual = 0.000384351, No Iterations 1
DILUPBiCGStab:  Solving for Uz, Initial residual = 0.00701365, Final residual = 0.000304688, No Iterations 1
DILUPBiCGStab:  Solving for Ux, Initial residual = 0.00382471, Final residual = 0.000170405, No Iterations 1
DILUPBiCGStab:  Solving for h, Initial residual = 0.00602814, Final residual = 0.000472957, No Iterations 1
DILUPBiCGStab:  Solving for Uy, Initial residual = 0.010081, Final residual = 0.000376253, No Iterations 1
Min/max T:296.772 319.257
DILUPBiCGStab:  Solving for Uz, Initial residual = 0.00738432, Final residual = 0.000326374, No Iterations 1
GAMG:  Solving for p_rgh, Initial residual = 0.0279268, Final residual = 0.000184635, No Iterations 3
time step continuity errors : sum local = 0.000907657, global = -0.00021053, cumulative = -0.00021053
DILUPBiCGStab:  Solving for h, Initial residual = 0.00674074, Final residual = 0.000520605, No Iterations 1
Min/max T:296.778 317.834
ExecutionTime = 0.331719 s  ClockTime = 0 s

volFieldValue volAvgFinTemperature write:
    volAverage() of T = 306.045

volFieldValue volAvgHeaterTemperature write:
    volAverage() of T = 318.657

surfaceFieldValue averageTempHeaterFinInterface write:
    areaAverage(heater_to_fins) of T = 306.338

Region: fluid Courant Number mean: 1337.05 max: 49509.6
Region: fins Diffusion Number mean: 170.65 max: 3675.16
Region: heater Diffusion Number mean: 71.6151 max: 572.065
Time = 6s


Solving for solid region fins
GAMG:  Solving for e, Initial residual = 0.381608, Final residual = 0.0114056, No Iterations 1
Min/max T:305.934 309.006

Solving for solid region heater
GAMG:  Solving for p_rgh, Initial residual = 0.0157808, Final residual = 8.52384e-05, No Iterations 3
GAMG:  Solving for e, Initial residual = 0.0747772, Final residual = 0.000613944, No Iterations 1
Min/max T:308.186 326.788

Solving for fluid region fluid
GAMG:  Solving for p_rgh, Initial residual = 0.019331, Final residual = 0.000144614, No Iterations 3
GAMG:  Solving for p_rgh, Initial residual = 0.00281304, Final residual = 1.54091e-05, No Iterations 3
DILUPBiCGStab:  Solving for Ux, Initial residual = 0.0106931, Final residual = 0.000471274, No Iterations 1
DILUPBiCGStab:  Solving for Uy, Initial residual = 0.0187981, Final residual = 0.000735128, No Iterations 1
GAMG:  Solving for p_rgh, Initial residual = 0.00445796, Final residual = 2.85914e-05, No Iterations 3
DILUPBiCGStab:  Solving for Uz, Initial residual = 0.0227696, Final residual = 0.00101042, No Iterations 1
GAMG:  Solving for p_rgh, Initial residual = 0.000469958, Final residual = 2.97787e-06, No Iterations 3
time step continuity errors : sum local = 1.66567e-05, global = 6.16862e-07, cumulative = 6.16862e-07
DILUPBiCGStab:  Solving for h, Initial residual = 0.0142022, Final residual = 0.00135104, No Iterations 1
ExecutionTime = 0.553982 s  ClockTime = 0 s

volFieldValue volAvgFinTemperature write:
    volAverage() of T = 318.5

volFieldValue volAvgHeaterTemperature write:
    volAverage() of T = 331.704

surfaceFieldValue averageTempHeaterFinInterface write:
    areaAverage(heater_to_fins) of T = 319.225

Min/max T:296.859 308.689
Region: fluid Courant Number mean: 1339.25 max: 59657.7
Region: fins Diffusion Number mean: 168.476 max: 16982.3
Region: heater Diffusion Number mean: 71.1115 max: 535.043
Time = 12s


Solving for solid region fins
GAMG:  Solving for e, Initial residual = 0.314604, Final residual = 0.011108, No Iterations 1
Min/max T:317.92 321.725

Solving for solid region heater
GAMG:  Solving for e, Initial residual = 0.0680394, Final residual = 4.16835e-05, No Iterations 1
Min/max T:320.948 339.694

Solving for fluid region fluid
GAMG:  Solving for p_rgh, Initial residual = 0.000790579, Final residual = 5.50878e-06, No Iterations 3
time step continuity errors : sum local = 3.01691e-05, global = 5.36591e-06, cumulative = 5.36591e-06
ExecutionTime = 0.52368 s  ClockTime = 0 s

volFieldValue volAvgFinTemperature write:
    volAverage() of T = 317.256

volFieldValue volAvgHeaterTemperature write:
    volAverage() of T = 330.341

surfaceFieldValue averageTempHeaterFinInterface write:
    areaAverage(heater_to_fins) of T = 317.882

Region: fluid Courant Number mean: 1345.75 max: 60765.8
Region: fins Diffusion Number mean: 167.459 max: 3529.82
Region: heater Diffusion Number mean: 69.344 max: 572.065
Time = 11s


Solving for solid region fins
GAMG:  Solving for e, Initial residual = 0.313918, Final residual = 0.0111684, No Iterations 1
Min/max T:316.834 320.36

Solving for solid region heater
[...]
GAMG:  Solving for e, Initial residual = 0.0854491, Final residual = 0.00323824, No Iterations 1
Min/max T:387.245 396.232

Solving for solid region heater
GAMG:  Solving for e, Initial residual = 0.0493594, Final residual = 2.22668e-05, No Iterations 1
Min/max T:394.555 413.849

Solving for fluid region fluid
GAMG:  Solving for p_rgh, Initial residual = 8.03189e-05, Final residual = 6.89593e-07, No Iterations 3
time step continuity errors : sum local = 4.1281e-06, global = -8.19203e-07, cumulative = -8.19203e-07
ExecutionTime = 3.19135 s  ClockTime = 3 s

volFieldValue volAvgFinTemperature write:
    volAverage() of T = 393.694
DILUPBiCGStab:  Solving for Ux, Initial residual = 0.00130665, Final residual = 5.50528e-05, No Iterations 1

volFieldValue volAvgHeaterTemperature write:
    volAverage() of T = 409.308

surfaceFieldValue averageTempHeaterFinInterface write:
    areaAverage(heater_to_fins) of T = 397.017

GAMG:  Solving for p_rgh, Initial residual = 0.126788, Final residual = 0.000955116, No Iterations 2
Region: fluid Courant Number mean: 1340.97 max: 49905.1
Region: fins Diffusion Number mean: 167.459 max: 3529.82
Region: heater Diffusion Number mean: 69.344 max: 572.065
Time = 52s

DILUPBiCGStab:  Solving for Uy, Initial residual = 0.00217506, Final residual = 9.11977e-05, No Iterations 1

Solving for solid region fins
time step continuity errors : sum local = 0.0079504, global = -0.000520849, cumulative = -0.000520849
DILUPBiCGStab:  Solving for Uz, Initial residual = 0.00157675, Final residual = 6.38509e-05, No Iterations 1
GAMG:  Solving for e, Initial residual = 0.0850841, Final residual = 0.00327795, No Iterations 1
Min/max T:390.226 399.118

Solving for solid region heater
GAMG:  Solving for e, Initial residual = 0.0483742, Final residual = 2.03824e-05, No Iterations 1
Min/max T:397.603 416.747

Solving for fluid region fluid
DILUPBiCGStab:  Solving for h, Initial residual = 0.00137203, Final residual = 7.66131e-05, No Iterations 1
Min/max T:296.589 392.194
ExecutionTime = 0.410013 s  ClockTime = 0 s

volFieldValue volAvgFinTemperature write:
    volAverage() of T = 303.545

volFieldValue volAvgHeaterTemperature write:
    volAverage() of T = 315.698

surfaceFieldValue averageTempHeaterFinInterface write:
    areaAverage(heater_to_fins) of T = 303.704

Region: fluid Courant Number mean: 1532.84 max: 129812
Region: fins Diffusion Number mean: 213.072 max: 16857
Region: heater Diffusion Number mean: 90.1024 max: 531.645
Time = 5s


Solving for solid region fins
DILUPBiCGStab:  Solving for Ux, Initial residual = 0.00131107, Final residual = 5.45187e-05, No Iterations 1
GAMG:  Solving for e, Initial residual = 0.504277, Final residual = 0.0137134, No Iterations 1
DILUPBiCGStab:  Solving for Uy, Initial residual = 0.00230088, Final residual = 9.6629e-05, No Iterations 1
Min/max T:303.435 306.179

Solving for solid region heater
DILUPBiCGStab:  Solving for Uz, Initial residual = 0.00128742, Final residual = 5.29668e-05, No Iterations 1
GAMG:  Solving for e, Initial residual = 0.0684581, Final residual = 0.000920414, No Iterations 1
Min/max T:305.564 323.579

Solving for fluid region fluid
DILUPBiCGStab:  Solving for h, Initial residual = 0.00130159, Final residual = 7.70541e-05, No Iterations 1
Min/max T:296.206 395.879
GAMG:  Solving for p_rgh, Initial residual = 0.0036108, Final residual = 1.44243e-05, No Iterations 3
DILUPBiCGStab:  Solving for Ux, Initial residual = 0.00126147, Final residual = 5.48926e-05, No Iterations 1
DILUPBiCGStab:  Solving for Uy, Initial residual = 0.00248796, Final residual = 0.000106121, No Iterations 1
DILUPBiCGStab:  Solving for Uz, Initial residual = 0.00130986, Final residual = 5.43772e-05, No Iterations 1
DILUPBiCGStab:  Solving for h, Initial residual = 0.00124969, Final residual = 8.72339e-05, No Iterations 1
GAMG:  Solving for p_rgh, Initial residual = 0.000553609, Final residual = 2.83551e-06, No Iterations 3
Min/max T:296.203 398.781
GAMG:  Solving for p_rgh, Initial residual = 0.00323735, Final residual = 1.41357e-05, No Iterations 3
GAMG:  Solving for p_rgh, Initial residual = 9.27022e-05, Final residual = 6.5356e-07, No Iterations 3
time step continuity errors : sum local = 3.94454e-06, global = -6.23318e-07, cumulative = -6.23318e-07
GAMG:  Solving for p_rgh, Initial residual = 0.000480864, Final residual = 2.55957e-06, No Iterations 3
GAMG:  Solving for p_rgh, Initial residual = 0.00333483, Final residual = 1.38085e-05, No Iterations 3
DILUPBiCGStab:  Solving for Ux, Initial residual = 0.0307427, Final residual = 0.00131089, No Iterations 1
DILUPBiCGStab:  Solving for Uy, Initial residual = 0.0540571, Final residual = 0.00190652, No Iterations 1
ExecutionTime = 3.06558 s  ClockTime = 3 s

volFieldValue volAvgFinTemperature write:
    volAverage() of T = 388.922

volFieldValue volAvgHeaterTemperature write:
    volAverage() of T = 404.244

surfaceFieldValue averageTempHeaterFinInterface write:
    areaAverage(heater_to_fins) of T = 391.984

Region: fluid Courant Number mean: 1331.78 max: 47995.8
Region: fins Diffusion Number mean: 170.65 max: 3675.16
Region: heater Diffusion Number mean: 71.6151 max: 572.065
Time = 49s

DILUPBiCGStab:  Solving for Uz, Initial residual = 0.0429674, Final residual = 0.00171225, No Iterations 1

Solving for solid region fins
GAMG:  Solving for e, Initial residual = 0.0898979, Final residual = 0.00330283, No Iterations 1
Min/max T:385.729 394.194

Solving for solid region heater
GAMG:  Solving for e, Initial residual = 0.0501718, Final residual = 2.20743e-05, No Iterations 1
GAMG:  Solving for p_rgh, Initial residual = 7.90462e-05, Final residual = 5.9208e-07, No Iterations 3
Min/max T:392.708 411.722

Solving for fluid region fluid
time step continuity errors : sum local = 3.57675e-06, global = -6.00365e-07, cumulative = -6.00365e-07
GAMG:  Solving for p_rgh, Initial residual = 0.000481193, Final residual = 2.69195e-06, No Iterations 3
DILUPBiCGStab:  Solving for h, Initial residual = 0.0235575, Final residual = 0.00212619, No Iterations 1
ExecutionTime = 3.27876 s  ClockTime = 3 s

Min/max T:296.839 305.997
volFieldValue volAvgFinTemperature write:
    volAverage() of T = 392.043

volFieldValue volAvgHeaterTemperature write:
    volAverage() of T = 408.007

surfaceFieldValue averageTempHeaterFinInterface write:
    areaAverage(heater_to_fins) of T = 395.696

Region: fluid Courant Number mean: 1334.69 max: 59545.1
Region: fins Diffusion Number mean: 168.476 max: 16982.3
Region: heater Diffusion Number mean: 71.1115 max: 535.043
Time = 53s


Solving for solid region fins
GAMG:  Solving for e, Initial residual = 0.0836682, Final residual = 0.0031704, No Iterations 1
Min/max T:388.723 397.829

Solving for solid region heater
GAMG:  Solving for e, Initial residual = 0.0489756, Final residual = 2.20896e-05, No Iterations 1
Min/max T:396.128 415.437

Solving for fluid region fluid
GAMG:  Solving for p_rgh, Initial residual = 7.86659e-05, Final residual = 6.80408e-07, No Iterations 3
time step continuity errors : sum local = 4.07912e-06, global = -8.16111e-07, cumulative = -8.16111e-07
ExecutionTime = 3.25271 s  ClockTime = 3 s

volFieldValue volAvgFinTemperature write:
    volAverage() of T = 395.27

volFieldValue volAvgHeaterTemperature write:
    volAverage() of T = 410.935

surfaceFieldValue averageTempHeaterFinInterface write:
    areaAverage(heater_to_fins) of T = 398.648

Region: fluid Courant Number mean: 1340.87 max: 49877
Region: fins Diffusion Number mean: 167.459 max: 3529.82
Region: heater Diffusion Number mean: 69.344 max: 572.065
Time = 53s


Solving for solid region fins
DILUPBiCGStab:  Solving for Ux, Initial residual = 0.00128283, Final residual = 5.39788e-05, No Iterations 1
GAMG:  Solving for e, Initial residual = 0.0833239, Final residual = 0.0032112, No Iterations 1
Min/max T:391.735 400.743

Solving for solid region heater
GAMG:  Solving for e, Initial residual = 0.0479782, Final residual = 2.02229e-05, No Iterations 1
DILUPBiCGStab:  Solving for Uy, Initial residual = 0.00212983, Final residual = 8.9221e-05, No Iterations 1
Min/max T:399.204 418.363

Solving for fluid region fluid
DILUPBiCGStab:  Solving for Uz, Initial residual = 0.00152833, Final residual = 6.18428e-05, No Iterations 1
DILUPBiCGStab:  Solving for h, Initial residual = 0.00133424, Final residual = 7.43177e-05, No Iterations 1
DILUPBiCGStab:  Solving for Ux, Initial residual = 0.0012875, Final residual = 5.34712e-05, No Iterations 1
Min/max T:296.583 393.864
DILUPBiCGStab:  Solving for Uy, Initial residual = 0.0022532, Final residual = 9.46456e-05, No Iterations 1
DILUPBiCGStab:  Solving for Uz, Initial residual = 0.00124985, Final residual = 5.14528e-05, No Iterations 1
GAMG:  Solving for p_rgh, Initial residual = 0.128917, Final residual = 0.000975899, No Iterations 5
DILUPBiCGStab:  Solving for h, Initial residual = 0.00126765, Final residual = 7.48429e-05, No Iterations 1
Min/max T:296.196 397.474
DILUPBiCGStab:  Solving for Ux, Initial residual = 0.00123981, Final residual = 5.39135e-05, No Iterations 1
DILUPBiCGStab:  Solving for Uy, Initial residual = 0.00244371, Final residual = 0.000104215, No Iterations 1
DILUPBiCGStab:  Solving for Uz, Initial residual = 0.00127378, Final residual = 5.29413e-05, No Iterations 1
GAMG:  Solving for p_rgh, Initial residual = 0.338001, Final residual = 0.00194941, No Iterations 2
GAMG:  Solving for p_rgh, Initial residual = 0.00353256, Final residual = 1.41337e-05, No Iterations 3
DILUPBiCGStab:  Solving for h, Initial residual = 0.00121629, Final residual = 8.47364e-05, No Iterations 1
Min/max T:296.191 400.403
GAMG:  Solving for p_rgh, Initial residual = 0.00319093, Final residual = 1.40175e-05, No Iterations 3
GAMG:  Solving for p_rgh, Initial residual = 0.000539298, Final residual = 2.75086e-06, No Iterations 3
GAMG:  Solving for p_rgh, Initial residual = 0.075088, Final residual = 0.000636241, No Iterations 2
time step continuity errors : sum local = 0.00375179, global = 0.000714902, cumulative = 0.000714902
GAMG:  Solving for p_rgh, Initial residual = 0.000474442, Final residual = 2.54285e-06, No Iterations 3
GAMG:  Solving for p_rgh, Initial residual = 0.00328642, Final residual = 1.36929e-05, No Iterations 3
GAMG:  Solving for p_rgh, Initial residual = 8.98186e-05, Final residual = 6.3702e-07, No Iterations 3
ExecutionTime = 0.497021 s  ClockTime = 0 s

time step continuity errors : sum local = 3.85019e-06, global = -6.39283e-07, cumulative = -6.39283e-07
volFieldValue volAvgFinTemperature write:
    volAverage() of T = 305.738

volFieldValue volAvgHeaterTemperature write:
    volAverage() of T = 318.032

surfaceFieldValue averageTempHeaterFinInterface write:
    areaAverage(heater_to_fins) of T = 305.964

Region: fluid Courant Number mean: 1532.73 max: 130266
Region: fins Diffusion Number mean: 213.072 max: 16857
Region: heater Diffusion Number mean: 90.1024 max: 531.645
Time = 6s


Solving for solid region fins
GAMG:  Solving for e, Initial residual = 0.476371, Final residual = 0.0141978, No Iterations 1
Min/max T:305.583 308.436

Solving for solid region heater
GAMG:  Solving for p_rgh, Initial residual = 7.78738e-05, Final residual = 5.87072e-07, No Iterations 3
ExecutionTime = 3.12168 s  ClockTime = 3 s

GAMG:  Solving for e, Initial residual = 0.0662143, Final residual = 0.000555069, No Iterations 1
volFieldValue volAvgFinTemperature write:
    volAverage() of T = 390.533

time step continuity errors : sum local = 3.55055e-06, global = -6.23068e-07, cumulative = -6.23068e-07
volFieldValue volAvgHeaterTemperature write:
    volAverage() of T = 405.906

surfaceFieldValue averageTempHeaterFinInterface write:
    areaAverage(heater_to_fins) of T = 393.65
Min/max T:307.811 325.905


Solving for fluid region fluid
Region: fluid Courant Number mean: 1331.69 max: 48022.2
Region: fins Diffusion Number mean: 170.65 max: 3675.16
Region: heater Diffusion Number mean: 71.6151 max: 572.065
Time = 50s


Solving for solid region fins
GAMG:  Solving for p_rgh, Initial residual = 0.000471464, Final residual = 2.66926e-06, No Iterations 3
GAMG:  Solving for e, Initial residual = 0.0879858, Final residual = 0.00323303, No Iterations 1
Min/max T:387.273 395.854

Solving for solid region heater
ExecutionTime = 3.33101 s  ClockTime = 3 s

GAMG:  Solving for e, Initial residual = 0.0497527, Final residual = 2.18992e-05, No Iterations 1
Min/max T:394.344 413.372

Solving for fluid region fluid
volFieldValue volAvgFinTemperature write:
    volAverage() of T = 393.574

volFieldValue volAvgHeaterTemperature write:
    volAverage() of T = 409.595

surfaceFieldValue averageTempHeaterFinInterface write:
    areaAverage(heater_to_fins) of T = 397.288

Region: fluid Courant Number mean: 1334.6 max: 59547.7
Region: fins Diffusion Number mean: 168.476 max: 16982.3
Region: heater Diffusion Number mean: 71.1115 max: 535.043
Time = 54s


Solving for solid region fins
GAMG:  Solving for e, Initial residual = 0.0819474, Final residual = 0.0031041, No Iterations 1
Min/max T:390.19 399.414

Solving for solid region heater
GAMG:  Solving for e, Initial residual = 0.0485957, Final residual = 2.1907e-05, No Iterations 1
Min/max T:397.689 417.014

Solving for fluid region fluid
GAMG:  Solving for p_rgh, Initial residual = 7.75462e-05, Final residual = 6.71257e-07, No Iterations 3
time step continuity errors : sum local = 4.03025e-06, global = -8.10805e-07, cumulative = -8.10805e-07
ExecutionTime = 3.30351 s  ClockTime = 3 s

volFieldValue volAvgFinTemperature write:
    volAverage() of T = 396.833

volFieldValue volAvgHeaterTemperature write:
    volAverage() of T = 412.55

surfaceFieldValue averageTempHeaterFinInterface write:
    areaAverage(heater_to_fins) of T = 400.267

Region: fluid Courant Number mean: 1340.77 max: 49849.5
Region: fins Diffusion Number mean: 167.459 max: 3529.82
Region: heater Diffusion Number mean: 69.344 max: 572.065
Time = 54s


Solving for solid region fins
GAMG:  Solving for e, Initial residual = 0.0816216, Final residual = 0.00314681, No Iterations 1
Min/max T:393.232 402.357

Solving for solid region heater
GAMG:  Solving for e, Initial residual = 0.0475858, Final residual = 2.00648e-05, No Iterations 1
Min/max T:400.792 419.966

Solving for fluid region fluid
DILUPBiCGStab:  Solving for Ux, Initial residual = 0.00125939, Final residual = 5.29237e-05, No Iterations 1
DILUPBiCGStab:  Solving for Uy, Initial residual = 0.00208642, Final residual = 8.73079e-05, No Iterations 1
DILUPBiCGStab:  Solving for Uz, Initial residual = 0.00148202, Final residual = 5.99344e-05, No Iterations 1
DILUPBiCGStab:  Solving for Ux, Initial residual = 0.00126445, Final residual = 5.24434e-05, No Iterations 1
DILUPBiCGStab:  Solving for Uy, Initial residual = 0.00220729, Final residual = 9.26937e-05, No Iterations 1
DILUPBiCGStab:  Solving for Uz, Initial residual = 0.0012138, Final residual = 5.00237e-05, No Iterations 1
DILUPBiCGStab:  Solving for h, Initial residual = 0.00129803, Final residual = 7.21004e-05, No Iterations 1
Min/max T:296.578 395.522
DILUPBiCGStab:  Solving for Ux, Initial residual = 0.0142116, Final residual = 0.000608338, No Iterations 1
DILUPBiCGStab:  Solving for h, Initial residual = 0.00123521, Final residual = 7.27394e-05, No Iterations 1
DILUPBiCGStab:  Solving for Uy, Initial residual = 0.026137, Final residual = 0.000933587, No Iterations 1
Min/max T:296.185 399.058
DILUPBiCGStab:  Solving for Uz, Initial residual = 0.0218742, Final residual = 0.000920184, No Iterations 1
DILUPBiCGStab:  Solving for Ux, Initial residual = 0.00121864, Final residual = 5.29516e-05, No Iterations 1
DILUPBiCGStab:  Solving for Uy, Initial residual = 0.00240149, Final residual = 0.000102399, No Iterations 1
DILUPBiCGStab:  Solving for Uz, Initial residual = 0.00123928, Final residual = 5.15743e-05, No Iterations 1
DILUPBiCGStab:  Solving for h, Initial residual = 0.0170957, Final residual = 0.00149814, No Iterations 1
GAMG:  Solving for p_rgh, Initial residual = 0.0034651, Final residual = 1.3763e-05, No Iterations 3
DILUPBiCGStab:  Solving for h, Initial residual = 0.00118463, Final residual = 8.23417e-05, No Iterations 1
Min/max T:296.804 308.249
Min/max T:296.18 402.014
GAMG:  Solving for p_rgh, Initial residual = 0.00315626, Final residual = 1.39314e-05, No Iterations 3
GAMG:  Solving for p_rgh, Initial residual = 0.000530466, Final residual = 2.69527e-06, No Iterations 3
GAMG:  Solving for p_rgh, Initial residual = 0.000469296, Final residual = 2.54524e-06, No Iterations 3
GAMG:  Solving for p_rgh, Initial residual = 0.00322561, Final residual = 1.33523e-05, No Iterations 3
GAMG:  Solving for p_rgh, Initial residual = 8.74697e-05, Final residual = 6.22158e-07, No Iterations 3
time step continuity errors : sum local = 3.76567e-06, global = -6.38942e-07, cumulative = -6.38942e-07
GAMG:  Solving for p_rgh, Initial residual = 7.6688e-05, Final residual = 5.85388e-07, No Iterations 3
time step continuity errors : sum local = 3.5444e-06, global = -6.43855e-07, cumulative = -6.43855e-07
GAMG:  Solving for p_rgh, Initial residual = 0.000460599, Final residual = 2.56988e-06, No Iterations 3
ExecutionTime = 3.38524 s  ClockTime = 3 s

ExecutionTime = 3.17974 s  ClockTime = 3 s

GAMG:  Solving for p_rgh, Initial residual = 0.0807299, Final residual = 0.000507926, No Iterations 5
volFieldValue volAvgFinTemperature write:
    volAverage() of T = 392.132
volFieldValue volAvgFinTemperature write:
    volAverage() of T = 395.094


volFieldValue volAvgHeaterTemperature write:
    volAverage() of T = 407.555
volFieldValue volAvgHeaterTemperature write:
    volAverage() of T = 411.172


surfaceFieldValue averageTempHeaterFinInterface write:
    areaAverage(heater_to_fins) of T = 398.868
surfaceFieldValue averageTempHeaterFinInterface write:
    areaAverage(heater_to_fins) of T = 395.303


Region: fluid Courant Number mean: 1331.59 max: 48049.2
Region: fluid Courant Number mean: 1334.5 max: 59550.1
Region: fins Diffusion Number mean: 168.476 max: 16982.3
Region: fins Diffusion Number mean: 170.65 max: 3675.16
Region: heater Diffusion Number mean: 71.6151 max: 572.065
Time = 51s

Region: heater Diffusion Number mean: 71.1115 max: 535.043
Time = 55s


Solving for solid region fins

Solving for solid region fins
GAMG:  Solving for e, Initial residual = 0.0802846, Final residual = 0.00303944, No Iterations 1
GAMG:  Solving for e, Initial residual = 0.0861394, Final residual = 0.0031652, No Iterations 1
Min/max T:391.647 400.988
Min/max T:388.805 397.501

Solving for solid region heater

Solving for solid region heater
GAMG:  Solving for e, Initial residual = 0.0482196, Final residual = 2.17209e-05, No Iterations 1
GAMG:  Solving for e, Initial residual = 0.0493376, Final residual = 2.17241e-05, No Iterations 1
Min/max T:395.967 415.009
Min/max T:399.239 418.579

Solving for fluid region fluid

Solving for fluid region fluid
GAMG:  Solving for p_rgh, Initial residual = 7.59069e-05, Final residual = 6.54123e-07, No Iterations 3
time step continuity errors : sum local = 3.93323e-06, global = -7.98332e-07, cumulative = -7.98332e-07
GAMG:  Solving for p_rgh, Initial residual = 0.131135, Final residual = 0.000771845, No Iterations 2
ExecutionTime = 3.35772 s  ClockTime = 3 s

volFieldValue volAvgFinTemperature write:
    volAverage() of T = 398.384

volFieldValue volAvgHeaterTemperature write:
    volAverage() of T = 414.153

surfaceFieldValue averageTempHeaterFinInterface write:
    areaAverage(heater_to_fins) of T = 401.873

Region: fluid Courant Number mean: 1340.67 max: 49822.5
Region: fins Diffusion Number mean: 167.459 max: 3529.82
Region: heater Diffusion Number mean: 69.344 max: 572.065
Time = 55s


Solving for solid region fins
GAMG:  Solving for e, Initial residual = 0.079976, Final residual = 0.00308421, No Iterations 1
Min/max T:394.717 403.958

Solving for solid region heater
GAMG:  Solving for e, Initial residual = 0.0471972, Final residual = 1.99054e-05, No Iterations 1
Min/max T:402.368 421.557

Solving for fluid region fluid
