/*---------------------------------------------------------------------------*\
  =========                 |
  \\      /  F ield         | OpenFOAM: The Open Source CFD Toolbox
   \\    /   O peration     | Website:  https://openfoam.org
    \\  /    A nd           | Version:  10
     \\/     M anipulation  |
\*---------------------------------------------------------------------------*/
Build  : 10-c4cf895ad8fa
Exec   : chtMultiRegionFoam
Date   : Nov 01 2023
Time   : 09:05:15
Host   : "alexesn"
PID    : 7373
I/O    : uncollated
Case   : /mnt/c/Users/sasch/OneDrive/Desktop/MEPhI/Project_practice/FOAM_project/heatExchanger/all_auto/case_20_10
nProcs : 1
sigFpe : Enabling floating point exception trapping (FOAM_SIGFPE).
fileModificationChecking : Monitoring run-time modified files using timeStampMaster (fileModificationSkew 10)
allowSystemOperations : Allowing user-supplied system call operations

// * * * * * * * * * * * * * * * * * * * * * * * * * * * * * * * * * * * * * //
Create time

Create fluid mesh for region fluid for time = 0

Create solid mesh for region fins for time = 0

Create solid mesh for region heater for time = 0


PIMPLE: Region fluid
PIMPLE: No convergence criteria found


PIMPLE: Region fins
PIMPLE: No convergence criteria found


PIMPLE: Region heater
PIMPLE: No convergence criteria found


PIMPLE: Operating solver in steady-state mode with 1 outer corrector
PIMPLE: Operating solver in SIMPLE mode


*** Reading fluid mesh thermophysical properties for region fluid

    Adding to thermoFluid

Selecting thermodynamics package 
{
    type            heRhoThermo;
    mixture         pureMixture;
    transport       const;
    thermo          hConst;
    equationOfState rhoConst;
    specie          specie;
    energy          sensibleEnthalpy;
}

    Adding to rhoFluid

    Adding to UFluid

    Adding to phiFluid

    Adding to gFluid

    Adding to hRefFluid

    Adding to pRefFluid

    Adding to ghFluid

    Adding to ghfFluid

    Adding to turbulenceFluid

Selecting turbulence model type laminar
Selecting laminar stress model Stokes
    Adding to thermophysicalTransport

Selecting thermophysical transport type laminar
Selecting default laminar thermophysical transport model unityLewisFourier
    Adding to reactionFluid

Combustion model not active: combustionProperties not found
Selecting combustion model none
    Adding to KFluid

    Adding to dpdtFluid

    Adding to fieldsFluid

    Adding MRF

No MRF models present

    Adding fvModelsFluid

    Adding fvConstraintsFluid

Creating fvConstraints from "system/fvConstraints"

Selecting finite volume constraint type limitTemperature
    Name: limitT
    - selecting all cells
    - selected 10345 cell(s) with volume 0.00149667
*** Reading solid mesh thermophysical properties for region fins

    Adding to thermoSolid

Selecting thermodynamics package 
{
    type            heSolidThermo;
    mixture         pureMixture;
    transport       constIsoSolid;
    thermo          eConst;
    equationOfState rhoConst;
    specie          specie;
    energy          sensibleInternalEnergy;
}

    Adding to fvModelsSolid

    Adding fvConstraintsSolid

*** Reading solid mesh thermophysical properties for region heater

    Adding to thermoSolid

Selecting thermodynamics package 
{
    type            heSolidThermo;
    mixture         pureMixture;
    transport       constIsoSolid;
    thermo          eConst;
    equationOfState rhoConst;
    specie          specie;
    energy          sensibleInternalEnergy;
}

    Adding to fvModelsSolid

Creating fvModels from "constant/fvModels"

Selecting finite volume model type heatSource
    Name: energySource
    - selecting all cells
    - selected 651 cell(s) with volume 1e-06
    Adding fvConstraintsSolid

Region: fluid Courant Number mean: 1299.43 max: 197734
Region: fins Diffusion Number mean: 120.796 max: 167602
Region: heater Diffusion Number mean: 73.7433 max: 540.957








surfaceFieldValue averageTempHeaterFinInterface:
    total faces  = 56
    total area   = 0.0001


volFieldValue volAvgFinTemperature write:
    volAverage() of T = 296.9

volFieldValue volAvgHeaterTemperature write:
    volAverage() of T = 296.9

surfaceFieldValue averageTempHeaterFinInterface write:
    areaAverage(heater_to_fins) of T = 296.9

Region: fluid Courant Number mean: 1299.43 max: 197734
Region: fins Diffusion Number mean: 120.796 max: 167602
Region: heater Diffusion Number mean: 73.7433 max: 540.957
Time = 1s


Solving for solid region fins
GAMG:  Solving for e, Initial residual = 0.982817, Final residual = 0.0442804, No Iterations 1
Min/max T:296.9 296.9

Solving for solid region heater
GAMG:  Solving for e, Initial residual = 1, Final residual = 0.0630281, No Iterations 3
Min/max T:296.9 314.532

Solving for fluid region fluid
DILUPBiCGStab:  Solving for Ux, Initial residual = 1, Final residual = 0.0267341, No Iterations 1
DILUPBiCGStab:  Solving for Uy, Initial residual = 1, Final residual = 0.0288028, No Iterations 1
DILUPBiCGStab:  Solving for Uz, Initial residual = 1, Final residual = 0.0292337, No Iterations 1
DILUPBiCGStab:  Solving for h, Initial residual = 1, Final residual = 0.0712896, No Iterations 1
Min/max T:295.652 297.758
GAMG:  Solving for p_rgh, Initial residual = 1, Final residual = 0.00734229, No Iterations 7
GAMG:  Solving for p_rgh, Initial residual = 0.513263, Final residual = 0.00362805, No Iterations 2
GAMG:  Solving for p_rgh, Initial residual = 0.0441553, Final residual = 0.000248957, No Iterations 3
time step continuity errors : sum local = 0.00980917, global = -0.00202644, cumulative = -0.00202644
ExecutionTime = 4.97713 s  ClockTime = 12 s

volFieldValue volAvgFinTemperature write:
    volAverage() of T = 296.9

volFieldValue volAvgHeaterTemperature write:
    volAverage() of T = 308.87

surfaceFieldValue averageTempHeaterFinInterface write:
    areaAverage(heater_to_fins) of T = 296.9

Region: fluid Courant Number mean: 1301.53 max: 99616.2
Region: fins Diffusion Number mean: 120.796 max: 167602
Region: heater Diffusion Number mean: 73.7433 max: 540.957
Time = 2s


Solving for solid region fins
GAMG:  Solving for e, Initial residual = 1, Final residual = 0.0350127, No Iterations 1
Min/max T:296.899 299.607

Solving for solid region heater
GAMG:  Solving for e, Initial residual = 0.247974, Final residual = 0.00607653, No Iterations 1
Min/max T:298.673 316.789

Solving for fluid region fluid
DILUPBiCGStab:  Solving for Ux, Initial residual = 0.260131, Final residual = 0.0116923, No Iterations 1
DILUPBiCGStab:  Solving for Uy, Initial residual = 0.357836, Final residual = 0.0154901, No Iterations 1
DILUPBiCGStab:  Solving for Uz, Initial residual = 0.413724, Final residual = 0.0181583, No Iterations 1
DILUPBiCGStab:  Solving for h, Initial residual = 0.131363, Final residual = 0.0110564, No Iterations 1
Min/max T:295.669 299.343
GAMG:  Solving for p_rgh, Initial residual = 0.238381, Final residual = 0.00177201, No Iterations 6
GAMG:  Solving for p_rgh, Initial residual = 0.727838, Final residual = 0.00534874, No Iterations 2
GAMG:  Solving for p_rgh, Initial residual = 0.130362, Final residual = 0.000955237, No Iterations 3
time step continuity errors : sum local = 0.0191758, global = 0.00290114, cumulative = 0.00290114
ExecutionTime = 5.14989 s  ClockTime = 12 s

volFieldValue volAvgFinTemperature write:
    volAverage() of T = 299.138

volFieldValue volAvgHeaterTemperature write:
    volAverage() of T = 311.254

surfaceFieldValue averageTempHeaterFinInterface write:
    areaAverage(heater_to_fins) of T = 299.184

Region: fluid Courant Number mean: 1301.37 max: 95905.2
Region: fins Diffusion Number mean: 120.796 max: 167602
Region: heater Diffusion Number mean: 73.7433 max: 540.957
Time = 3s


Solving for solid region fins
GAMG:  Solving for e, Initial residual = 0.618312, Final residual = 0.0112089, No Iterations 1
Min/max T:298.97 301.813

Solving for solid region heater
GAMG:  Solving for e, Initial residual = 0.0899544, Final residual = 0.00275404, No Iterations 1
Min/max T:300.926 319.356

Solving for fluid region fluid
DILUPBiCGStab:  Solving for Ux, Initial residual = 0.108307, Final residual = 0.00481047, No Iterations 1
DILUPBiCGStab:  Solving for Uy, Initial residual = 0.273977, Final residual = 0.0115647, No Iterations 1
DILUPBiCGStab:  Solving for Uz, Initial residual = 0.391267, Final residual = 0.0172688, No Iterations 1
DILUPBiCGStab:  Solving for h, Initial residual = 0.086229, Final residual = 0.00777896, No Iterations 1
Min/max T:296.659 301.612
GAMG:  Solving for p_rgh, Initial residual = 0.216102, Final residual = 0.00145276, No Iterations 6
GAMG:  Solving for p_rgh, Initial residual = 0.703286, Final residual = 0.00504371, No Iterations 2
GAMG:  Solving for p_rgh, Initial residual = 0.120614, Final residual = 0.000785447, No Iterations 3
time step continuity errors : sum local = 0.00697925, global = -0.00106772, cumulative = -0.00106772
ExecutionTime = 5.3288 s  ClockTime = 12 s

volFieldValue volAvgFinTemperature write:
    volAverage() of T = 301.377

volFieldValue volAvgHeaterTemperature write:
    volAverage() of T = 313.742

surfaceFieldValue averageTempHeaterFinInterface write:
    areaAverage(heater_to_fins) of T = 301.456

Region: fluid Courant Number mean: 1301 max: 96131.8
Region: fins Diffusion Number mean: 120.796 max: 167602
Region: heater Diffusion Number mean: 73.7433 max: 540.957
Time = 4s


Solving for solid region fins
GAMG:  Solving for e, Initial residual = 0.546413, Final residual = 0.00997127, No Iterations 1
Min/max T:301.198 304.1

Solving for solid region heater
GAMG:  Solving for e, Initial residual = 0.0767819, Final residual = 0.00171375, No Iterations 1
Min/max T:303.185 321.829

Solving for fluid region fluid
DILUPBiCGStab:  Solving for Ux, Initial residual = 0.0427906, Final residual = 0.00190275, No Iterations 1
DILUPBiCGStab:  Solving for Uy, Initial residual = 0.0855579, Final residual = 0.00372337, No Iterations 1
DILUPBiCGStab:  Solving for Uz, Initial residual = 0.108472, Final residual = 0.00476236, No Iterations 1
DILUPBiCGStab:  Solving for h, Initial residual = 0.0335774, Final residual = 0.00297776, No Iterations 1
Min/max T:296.711 303.871
GAMG:  Solving for p_rgh, Initial residual = 0.162841, Final residual = 0.00114983, No Iterations 6
GAMG:  Solving for p_rgh, Initial residual = 0.398698, Final residual = 0.00276988, No Iterations 2
GAMG:  Solving for p_rgh, Initial residual = 0.0575074, Final residual = 0.000342047, No Iterations 3
time step continuity errors : sum local = 0.00255386, global = 0.000392794, cumulative = 0.000392794
ExecutionTime = 5.56688 s  ClockTime = 13 s

volFieldValue volAvgFinTemperature write:
    volAverage() of T = 303.611

volFieldValue volAvgHeaterTemperature write:
    volAverage() of T = 316.145

surfaceFieldValue averageTempHeaterFinInterface write:
    areaAverage(heater_to_fins) of T = 303.731

Region: fluid Courant Number mean: 1300.83 max: 91383.9
Region: fins Diffusion Number mean: 120.796 max: 167602
Region: heater Diffusion Number mean: 73.7433 max: 540.957
Time = 5s


Solving for solid region fins
GAMG:  Solving for e, Initial residual = 0.518633, Final residual = 0.010536, No Iterations 1
Min/max T:303.441 306.36

Solving for solid region heater
GAMG:  Solving for e, Initial residual = 0.0733509, Final residual = 0.00108236, No Iterations 1
Min/max T:305.454 324.226

Solving for fluid region fluid
DILUPBiCGStab:  Solving for Ux, Initial residual = 0.0178689, Final residual = 0.000773816, No Iterations 1
DILUPBiCGStab:  Solving for Uy, Initial residual = 0.0436785, Final residual = 0.00173501, No Iterations 1
DILUPBiCGStab:  Solving for Uz, Initial residual = 0.0523938, Final residual = 0.00233723, No Iterations 1
DILUPBiCGStab:  Solving for h, Initial residual = 0.0199909, Final residual = 0.00117843, No Iterations 2
Min/max T:296.848 306.123
GAMG:  Solving for p_rgh, Initial residual = 0.106035, Final residual = 0.00102034, No Iterations 5
GAMG:  Solving for p_rgh, Initial residual = 0.246386, Final residual = 0.00171234, No Iterations 2
GAMG:  Solving for p_rgh, Initial residual = 0.0335428, Final residual = 0.000249241, No Iterations 3
time step continuity errors : sum local = 0.00133927, global = -0.000220106, cumulative = -0.000220106
ExecutionTime = 5.76799 s  ClockTime = 13 s

volFieldValue volAvgFinTemperature write:
    volAverage() of T = 305.838

volFieldValue volAvgHeaterTemperature write:
    volAverage() of T = 318.494

surfaceFieldValue averageTempHeaterFinInterface write:
    areaAverage(heater_to_fins) of T = 306.003

Region: fluid Courant Number mean: 1300.61 max: 90655.5
Region: fins Diffusion Number mean: 120.796 max: 167602
Region: heater Diffusion Number mean: 73.7433 max: 540.957
Time = 6s


Solving for solid region fins
GAMG:  Solving for e, Initial residual = 0.49809, Final residual = 0.0109281, No Iterations 1
Min/max T:305.691 308.609

Solving for solid region heater
GAMG:  Solving for e, Initial residual = 0.0714187, Final residual = 0.000688734, No Iterations 1
Min/max T:307.715 326.572

Solving for fluid region fluid
DILUPBiCGStab:  Solving for Ux, Initial residual = 0.00896294, Final residual = 0.000401577, No Iterations 1
DILUPBiCGStab:  Solving for Uy, Initial residual = 0.0206552, Final residual = 0.00083141, No Iterations 1
DILUPBiCGStab:  Solving for Uz, Initial residual = 0.0251644, Final residual = 0.00112008, No Iterations 1
DILUPBiCGStab:  Solving for h, Initial residual = 0.0138255, Final residual = 0.00124487, No Iterations 1
Min/max T:296.859 308.362
GAMG:  Solving for p_rgh, Initial residual = 0.0701292, Final residual = 0.000525169, No Iterations 5
GAMG:  Solving for p_rgh, Initial residual = 0.0946034, Final residual = 0.000613435, No Iterations 2
GAMG:  Solving for p_rgh, Initial residual = 0.0120787, Final residual = 7.95227e-05, No Iterations 3
time step continuity errors : sum local = 0.00047416, global = 7.9488e-05, cumulative = 7.9488e-05
ExecutionTime = 5.97914 s  ClockTime = 13 s

volFieldValue volAvgFinTemperature write:
    volAverage() of T = 308.054

volFieldValue volAvgHeaterTemperature write:
    volAverage() of T = 320.803

surfaceFieldValue averageTempHeaterFinInterface write:
    areaAverage(heater_to_fins) of T = 308.266

Region: fluid Courant Number mean: 1300.45 max: 89358.9
Region: fins Diffusion Number mean: 120.796 max: 167602
Region: heater Diffusion Number mean: 73.7433 max: 540.957
Time = 7s


Solving for solid region fins
GAMG:  Solving for e, Initial residual = 0.478055, Final residual = 0.0111296, No Iterations 1
Min/max T:307.933 310.842

Solving for solid region heater
GAMG:  Solving for e, Initial residual = 0.070029, Final residual = 0.000438775, No Iterations 1
Min/max T:309.967 328.874

Solving for fluid region fluid
DILUPBiCGStab:  Solving for Ux, Initial residual = 0.00464479, Final residual = 0.000188201, No Iterations 1
DILUPBiCGStab:  Solving for Uy, Initial residual = 0.013225, Final residual = 0.000440211, No Iterations 1
DILUPBiCGStab:  Solving for Uz, Initial residual = 0.0133817, Final residual = 0.000558362, No Iterations 1
DILUPBiCGStab:  Solving for h, Initial residual = 0.0107628, Final residual = 0.000954225, No Iterations 1
Min/max T:296.871 310.587
GAMG:  Solving for p_rgh, Initial residual = 0.0413472, Final residual = 0.000209277, No Iterations 5
GAMG:  Solving for p_rgh, Initial residual = 0.0438731, Final residual = 0.000264865, No Iterations 2
GAMG:  Solving for p_rgh, Initial residual = 0.00574967, Final residual = 2.74851e-05, No Iterations 3
time step continuity errors : sum local = 0.000153161, global = -4.49593e-05, cumulative = -4.49593e-05
ExecutionTime = 6.18018 s  ClockTime = 14 s

volFieldValue volAvgFinTemperature write:
    volAverage() of T = 310.255

volFieldValue volAvgHeaterTemperature write:
    volAverage() of T = 323.081

surfaceFieldValue averageTempHeaterFinInterface write:
    areaAverage(heater_to_fins) of T = 310.517

Region: fluid Courant Number mean: 1300.28 max: 88733.2
Region: fins Diffusion Number mean: 120.796 max: 167602
Region: heater Diffusion Number mean: 73.7433 max: 540.957
Time = 8s


Solving for solid region fins
GAMG:  Solving for e, Initial residual = 0.458218, Final residual = 0.0111354, No Iterations 1
Min/max T:310.116 313.06

Solving for solid region heater
GAMG:  Solving for e, Initial residual = 0.0689739, Final residual = 0.000280525, No Iterations 1
Min/max T:312.205 331.143

Solving for fluid region fluid
DILUPBiCGStab:  Solving for Ux, Initial residual = 0.0040034, Final residual = 0.000179701, No Iterations 1
DILUPBiCGStab:  Solving for Uy, Initial residual = 0.0104527, Final residual = 0.000380463, No Iterations 1
DILUPBiCGStab:  Solving for Uz, Initial residual = 0.0118444, Final residual = 0.000513973, No Iterations 1
DILUPBiCGStab:  Solving for h, Initial residual = 0.00882675, Final residual = 0.000755197, No Iterations 1
Min/max T:296.859 312.795
GAMG:  Solving for p_rgh, Initial residual = 0.0307668, Final residual = 0.00026479, No Iterations 4
GAMG:  Solving for p_rgh, Initial residual = 0.0175096, Final residual = 0.00012713, No Iterations 2
GAMG:  Solving for p_rgh, Initial residual = 0.00227998, Final residual = 1.69362e-05, No Iterations 3
time step continuity errors : sum local = 9.75586e-05, global = -6.30708e-06, cumulative = -6.30708e-06
ExecutionTime = 6.41021 s  ClockTime = 14 s

volFieldValue volAvgFinTemperature write:
    volAverage() of T = 312.441

volFieldValue volAvgHeaterTemperature write:
    volAverage() of T = 325.333

surfaceFieldValue averageTempHeaterFinInterface write:
    areaAverage(heater_to_fins) of T = 312.754

Region: fluid Courant Number mean: 1300.13 max: 88173.3
Region: fins Diffusion Number mean: 120.796 max: 167602
Region: heater Diffusion Number mean: 73.7433 max: 540.957
Time = 9s


Solving for solid region fins
GAMG:  Solving for e, Initial residual = 0.438666, Final residual = 0.0110226, No Iterations 1
Min/max T:312.262 315.263

Solving for solid region heater
GAMG:  Solving for e, Initial residual = 0.0681209, Final residual = 0.000179672, No Iterations 1
Min/max T:314.43 333.384

Solving for fluid region fluid
DILUPBiCGStab:  Solving for Ux, Initial residual = 0.00334379, Final residual = 0.000146754, No Iterations 1
DILUPBiCGStab:  Solving for Uy, Initial residual = 0.0087272, Final residual = 0.000315507, No Iterations 1
DILUPBiCGStab:  Solving for Uz, Initial residual = 0.00917846, Final residual = 0.000396489, No Iterations 1
DILUPBiCGStab:  Solving for h, Initial residual = 0.00752049, Final residual = 0.000625149, No Iterations 1
Min/max T:296.855 314.988
GAMG:  Solving for p_rgh, Initial residual = 0.0238565, Final residual = 0.000123843, No Iterations 4
GAMG:  Solving for p_rgh, Initial residual = 0.00874785, Final residual = 6.24709e-05, No Iterations 2
GAMG:  Solving for p_rgh, Initial residual = 0.00114829, Final residual = 9.41976e-06, No Iterations 3
time step continuity errors : sum local = 5.3699e-05, global = 4.79821e-06, cumulative = 4.79821e-06
ExecutionTime = 6.65353 s  ClockTime = 15 s

volFieldValue volAvgFinTemperature write:
    volAverage() of T = 314.613

volFieldValue volAvgHeaterTemperature write:
    volAverage() of T = 327.564

surfaceFieldValue averageTempHeaterFinInterface write:
    areaAverage(heater_to_fins) of T = 314.977

Region: fluid Courant Number mean: 1299.98 max: 87807.9
Region: fins Diffusion Number mean: 120.796 max: 167602
Region: heater Diffusion Number mean: 73.7433 max: 540.957
Time = 10s


Solving for solid region fins
GAMG:  Solving for e, Initial residual = 0.419276, Final residual = 0.0108023, No Iterations 1
Min/max T:314.39 317.449

Solving for solid region heater
GAMG:  Solving for e, Initial residual = 0.0673974, Final residual = 0.000115283, No Iterations 1
Min/max T:316.64 335.601

Solving for fluid region fluid
DILUPBiCGStab:  Solving for Ux, Initial residual = 0.00316442, Final residual = 0.00014228, No Iterations 1
DILUPBiCGStab:  Solving for Uy, Initial residual = 0.00797069, Final residual = 0.000306101, No Iterations 1
DILUPBiCGStab:  Solving for Uz, Initial residual = 0.00885113, Final residual = 0.000391933, No Iterations 1
DILUPBiCGStab:  Solving for h, Initial residual = 0.00654807, Final residual = 0.000519731, No Iterations 1
Min/max T:296.853 317.165
GAMG:  Solving for p_rgh, Initial residual = 0.0207974, Final residual = 0.000152296, No Iterations 3
GAMG:  Solving for p_rgh, Initial residual = 0.00435206, Final residual = 2.48273e-05, No Iterations 3
GAMG:  Solving for p_rgh, Initial residual = 0.000744876, Final residual = 4.8312e-06, No Iterations 3
time step continuity errors : sum local = 2.78312e-05, global = 1.63647e-06, cumulative = 1.63647e-06
ExecutionTime = 6.86778 s  ClockTime = 15 s

volFieldValue volAvgFinTemperature write:
    volAverage() of T = 316.768

volFieldValue volAvgHeaterTemperature write:
    volAverage() of T = 329.775

surfaceFieldValue averageTempHeaterFinInterface write:
    areaAverage(heater_to_fins) of T = 317.184

Region: fluid Courant Number mean: 1299.84 max: 87525.1
Region: fins Diffusion Number mean: 120.796 max: 167602
Region: heater Diffusion Number mean: 73.7433 max: 540.957
Time = 11s


Solving for solid region fins
GAMG:  Solving for e, Initial residual = 0.400682, Final residual = 0.0105349, No Iterations 1
Min/max T:316.501 319.637

Solving for solid region heater
GAMG:  Solving for e, Initial residual = 0.0667567, Final residual = 7.41805e-05, No Iterations 1
Min/max T:318.834 337.798

Solving for fluid region fluid
DILUPBiCGStab:  Solving for Ux, Initial residual = 0.00295056, Final residual = 0.00013248, No Iterations 1
DILUPBiCGStab:  Solving for Uy, Initial residual = 0.00724985, Final residual = 0.000283902, No Iterations 1
DILUPBiCGStab:  Solving for Uz, Initial residual = 0.00789141, Final residual = 0.000350359, No Iterations 1
DILUPBiCGStab:  Solving for h, Initial residual = 0.00585727, Final residual = 0.00044776, No Iterations 1
Min/max T:296.851 319.332
GAMG:  Solving for p_rgh, Initial residual = 0.0179277, Final residual = 8.12419e-05, No Iterations 3
GAMG:  Solving for p_rgh, Initial residual = 0.00320262, Final residual = 1.38731e-05, No Iterations 3
GAMG:  Solving for p_rgh, Initial residual = 0.000507749, Final residual = 3.38087e-06, No Iterations 3
time step continuity errors : sum local = 1.9516e-05, global = -4.15593e-06, cumulative = -4.15593e-06
ExecutionTime = 7.05252 s  ClockTime = 15 s

volFieldValue volAvgFinTemperature write:
    volAverage() of T = 318.908

volFieldValue volAvgHeaterTemperature write:
    volAverage() of T = 331.968

surfaceFieldValue averageTempHeaterFinInterface write:
    areaAverage(heater_to_fins) of T = 319.377

Region: fluid Courant Number mean: 1299.7 max: 87318.1
Region: fins Diffusion Number mean: 120.796 max: 167602
Region: heater Diffusion Number mean: 73.7433 max: 540.957
Time = 12s


Solving for solid region fins
GAMG:  Solving for e, Initial residual = 0.383142, Final residual = 0.0102347, No Iterations 1
Min/max T:318.594 321.815

Solving for solid region heater
GAMG:  Solving for e, Initial residual = 0.0661693, Final residual = 4.90086e-05, No Iterations 1
Min/max T:321.014 339.977

Solving for fluid region fluid
DILUPBiCGStab:  Solving for Ux, Initial residual = 0.0028074, Final residual = 0.000126382, No Iterations 1
DILUPBiCGStab:  Solving for Uy, Initial residual = 0.00681104, Final residual = 0.000273414, No Iterations 1
DILUPBiCGStab:  Solving for Uz, Initial residual = 0.00745492, Final residual = 0.000332411, No Iterations 1
DILUPBiCGStab:  Solving for h, Initial residual = 0.00531791, Final residual = 0.00039868, No Iterations 1
Min/max T:296.846 321.484
GAMG:  Solving for p_rgh, Initial residual = 0.0157663, Final residual = 0.000156868, No Iterations 2
GAMG:  Solving for p_rgh, Initial residual = 0.00246779, Final residual = 1.91912e-05, No Iterations 3
GAMG:  Solving for p_rgh, Initial residual = 0.000455737, Final residual = 3.7709e-06, No Iterations 3
time step continuity errors : sum local = 2.18565e-05, global = -3.1049e-06, cumulative = -3.1049e-06
ExecutionTime = 7.20908 s  ClockTime = 16 s

volFieldValue volAvgFinTemperature write:
    volAverage() of T = 321.033

volFieldValue volAvgHeaterTemperature write:
    volAverage() of T = 334.144

surfaceFieldValue averageTempHeaterFinInterface write:
    areaAverage(heater_to_fins) of T = 321.555

Region: fluid Courant Number mean: 1299.56 max: 87158.4
Region: fins Diffusion Number mean: 120.796 max: 167602
Region: heater Diffusion Number mean: 73.7433 max: 540.957
Time = 13s


Solving for solid region fins
GAMG:  Solving for e, Initial residual = 0.366501, Final residual = 0.00991903, No Iterations 1
Min/max T:320.67 323.979

Solving for solid region heater
GAMG:  Solving for e, Initial residual = 0.0656169, Final residual = 3.41353e-05, No Iterations 1
Min/max T:323.179 342.138

Solving for fluid region fluid
DILUPBiCGStab:  Solving for Ux, Initial residual = 0.00267522, Final residual = 0.000120377, No Iterations 1
DILUPBiCGStab:  Solving for Uy, Initial residual = 0.00641042, Final residual = 0.000261037, No Iterations 1
DILUPBiCGStab:  Solving for Uz, Initial residual = 0.00693641, Final residual = 0.000310141, No Iterations 1
DILUPBiCGStab:  Solving for h, Initial residual = 0.00488678, Final residual = 0.000359619, No Iterations 1
Min/max T:296.841 323.621
GAMG:  Solving for p_rgh, Initial residual = 0.0141988, Final residual = 0.000126878, No Iterations 2
GAMG:  Solving for p_rgh, Initial residual = 0.00220306, Final residual = 1.42598e-05, No Iterations 3
GAMG:  Solving for p_rgh, Initial residual = 0.000403616, Final residual = 2.85973e-06, No Iterations 3
time step continuity errors : sum local = 1.66397e-05, global = -1.29283e-06, cumulative = -1.29283e-06
ExecutionTime = 7.34861 s  ClockTime = 16 s

volFieldValue volAvgFinTemperature write:
    volAverage() of T = 323.143

volFieldValue volAvgHeaterTemperature write:
    volAverage() of T = 336.303

surfaceFieldValue averageTempHeaterFinInterface write:
    areaAverage(heater_to_fins) of T = 323.717

Region: fluid Courant Number mean: 1299.42 max: 87029.2
Region: fins Diffusion Number mean: 120.796 max: 167602
Region: heater Diffusion Number mean: 73.7433 max: 540.957
Time = 14s


Solving for solid region fins
GAMG:  Solving for e, Initial residual = 0.350574, Final residual = 0.00958585, No Iterations 1
Min/max T:322.73 326.127

Solving for solid region heater
GAMG:  Solving for e, Initial residual = 0.0650881, Final residual = 2.57658e-05, No Iterations 1
Min/max T:325.328 344.283

Solving for fluid region fluid
DILUPBiCGStab:  Solving for Ux, Initial residual = 0.0025608, Final residual = 0.000114895, No Iterations 1
DILUPBiCGStab:  Solving for Uy, Initial residual = 0.00610565, Final residual = 0.000252447, No Iterations 1
DILUPBiCGStab:  Solving for Uz, Initial residual = 0.00653827, Final residual = 0.000291848, No Iterations 1
DILUPBiCGStab:  Solving for h, Initial residual = 0.00453017, Final residual = 0.00032899, No Iterations 1
Min/max T:296.836 325.743
GAMG:  Solving for p_rgh, Initial residual = 0.0126102, Final residual = 0.000115231, No Iterations 2
GAMG:  Solving for p_rgh, Initial residual = 0.0018777, Final residual = 1.36609e-05, No Iterations 3
GAMG:  Solving for p_rgh, Initial residual = 0.000348319, Final residual = 3.00796e-06, No Iterations 3
time step continuity errors : sum local = 1.75645e-05, global = -3.80417e-06, cumulative = -3.80417e-06
ExecutionTime = 7.50491 s  ClockTime = 16 s

volFieldValue volAvgFinTemperature write:
    volAverage() of T = 325.237

volFieldValue volAvgHeaterTemperature write:
    volAverage() of T = 338.446

surfaceFieldValue averageTempHeaterFinInterface write:
    areaAverage(heater_to_fins) of T = 325.864

Region: fluid Courant Number mean: 1299.28 max: 86915.2
Region: fins Diffusion Number mean: 120.796 max: 167602
Region: heater Diffusion Number mean: 73.7433 max: 540.957
Time = 15s


Solving for solid region fins
GAMG:  Solving for e, Initial residual = 0.335723, Final residual = 0.00925352, No Iterations 1
Min/max T:324.774 328.261

Solving for solid region heater
GAMG:  Solving for e, Initial residual = 0.0645766, Final residual = 2.1126e-05, No Iterations 1
Min/max T:327.462 346.412

Solving for fluid region fluid
DILUPBiCGStab:  Solving for Ux, Initial residual = 0.00246576, Final residual = 0.000110353, No Iterations 1
DILUPBiCGStab:  Solving for Uy, Initial residual = 0.00585763, Final residual = 0.00024448, No Iterations 1
DILUPBiCGStab:  Solving for Uz, Initial residual = 0.00618566, Final residual = 0.000275835, No Iterations 1
DILUPBiCGStab:  Solving for h, Initial residual = 0.00423244, Final residual = 0.000303183, No Iterations 1
Min/max T:296.831 327.863
GAMG:  Solving for p_rgh, Initial residual = 0.0113116, Final residual = 0.000100795, No Iterations 2
GAMG:  Solving for p_rgh, Initial residual = 0.00171664, Final residual = 1.29597e-05, No Iterations 3
GAMG:  Solving for p_rgh, Initial residual = 0.000324729, Final residual = 2.80286e-06, No Iterations 3
time step continuity errors : sum local = 1.64183e-05, global = -3.46014e-06, cumulative = -3.46014e-06
ExecutionTime = 7.65429 s  ClockTime = 17 s

volFieldValue volAvgFinTemperature write:
    volAverage() of T = 327.316

volFieldValue volAvgHeaterTemperature write:
    volAverage() of T = 340.574

surfaceFieldValue averageTempHeaterFinInterface write:
    areaAverage(heater_to_fins) of T = 327.996

Region: fluid Courant Number mean: 1299.15 max: 86805.2
Region: fins Diffusion Number mean: 120.796 max: 167602
Region: heater Diffusion Number mean: 73.7433 max: 540.957
Time = 16s


Solving for solid region fins
GAMG:  Solving for e, Initial residual = 0.321847, Final residual = 0.00892759, No Iterations 1
Min/max T:326.802 330.379

Solving for solid region heater
GAMG:  Solving for e, Initial residual = 0.0640773, Final residual = 1.85445e-05, No Iterations 1
Min/max T:329.581 348.525

Solving for fluid region fluid
DILUPBiCGStab:  Solving for Ux, Initial residual = 0.00238009, Final residual = 0.000106207, No Iterations 1
DILUPBiCGStab:  Solving for Uy, Initial residual = 0.00566022, Final residual = 0.000237753, No Iterations 1
DILUPBiCGStab:  Solving for Uz, Initial residual = 0.00587447, Final residual = 0.000261286, No Iterations 1
DILUPBiCGStab:  Solving for h, Initial residual = 0.00397699, Final residual = 0.000282233, No Iterations 1
Min/max T:296.826 329.968
GAMG:  Solving for p_rgh, Initial residual = 0.0102824, Final residual = 9.40277e-05, No Iterations 2
GAMG:  Solving for p_rgh, Initial residual = 0.00153802, Final residual = 1.19036e-05, No Iterations 3
GAMG:  Solving for p_rgh, Initial residual = 0.000304089, Final residual = 2.53595e-06, No Iterations 3
time step continuity errors : sum local = 1.48976e-05, global = -3.06227e-06, cumulative = -3.06227e-06
ExecutionTime = 7.80575 s  ClockTime = 17 s

volFieldValue volAvgFinTemperature write:
    volAverage() of T = 329.38

volFieldValue volAvgHeaterTemperature write:
    volAverage() of T = 342.687

surfaceFieldValue averageTempHeaterFinInterface write:
    areaAverage(heater_to_fins) of T = 330.114

Region: fluid Courant Number mean: 1299.02 max: 86689.9
Region: fins Diffusion Number mean: 120.796 max: 167602
Region: heater Diffusion Number mean: 73.7433 max: 540.957
Time = 17s


Solving for solid region fins
GAMG:  Solving for e, Initial residual = 0.308886, Final residual = 0.00860828, No Iterations 1
Min/max T:328.815 332.483

Solving for solid region heater
GAMG:  Solving for e, Initial residual = 0.0635876, Final residual = 1.70799e-05, No Iterations 1
Min/max T:331.685 350.623

Solving for fluid region fluid
DILUPBiCGStab:  Solving for Ux, Initial residual = 0.00230417, Final residual = 0.000102507, No Iterations 1
DILUPBiCGStab:  Solving for Uy, Initial residual = 0.00549081, Final residual = 0.000231644, No Iterations 1
DILUPBiCGStab:  Solving for Uz, Initial residual = 0.00559719, Final residual = 0.0002481, No Iterations 1
DILUPBiCGStab:  Solving for h, Initial residual = 0.00375238, Final residual = 0.000264275, No Iterations 1
Min/max T:296.821 332.058
GAMG:  Solving for p_rgh, Initial residual = 0.00945834, Final residual = 9.06736e-05, No Iterations 2
GAMG:  Solving for p_rgh, Initial residual = 0.0014005, Final residual = 1.13646e-05, No Iterations 3
GAMG:  Solving for p_rgh, Initial residual = 0.000281521, Final residual = 2.33545e-06, No Iterations 3
time step continuity errors : sum local = 1.37603e-05, global = -2.86719e-06, cumulative = -2.86719e-06
ExecutionTime = 7.96938 s  ClockTime = 17 s

volFieldValue volAvgFinTemperature write:
    volAverage() of T = 331.43

volFieldValue volAvgHeaterTemperature write:
    volAverage() of T = 344.784

surfaceFieldValue averageTempHeaterFinInterface write:
    areaAverage(heater_to_fins) of T = 332.216

Region: fluid Courant Number mean: 1298.89 max: 86562.3
Region: fins Diffusion Number mean: 120.796 max: 167602
Region: heater Diffusion Number mean: 73.7433 max: 540.957
Time = 18s


Solving for solid region fins
GAMG:  Solving for e, Initial residual = 0.296744, Final residual = 0.00830099, No Iterations 1
Min/max T:330.813 334.572

Solving for solid region heater
GAMG:  Solving for e, Initial residual = 0.0631049, Final residual = 1.61966e-05, No Iterations 1
Min/max T:333.774 352.706

Solving for fluid region fluid
DILUPBiCGStab:  Solving for Ux, Initial residual = 0.00223698, Final residual = 9.92498e-05, No Iterations 1
DILUPBiCGStab:  Solving for Uy, Initial residual = 0.00534302, Final residual = 0.000225892, No Iterations 1
DILUPBiCGStab:  Solving for Uz, Initial residual = 0.00534775, Final residual = 0.00023611, No Iterations 1
DILUPBiCGStab:  Solving for h, Initial residual = 0.00355549, Final residual = 0.000248944, No Iterations 1
Min/max T:296.815 334.134
GAMG:  Solving for p_rgh, Initial residual = 0.00889113, Final residual = 8.77592e-05, No Iterations 2
GAMG:  Solving for p_rgh, Initial residual = 0.00130857, Final residual = 1.08009e-05, No Iterations 3
GAMG:  Solving for p_rgh, Initial residual = 0.000264817, Final residual = 2.21849e-06, No Iterations 3
time step continuity errors : sum local = 1.31086e-05, global = -2.73741e-06, cumulative = -2.73741e-06
ExecutionTime = 8.11374 s  ClockTime = 18 s

volFieldValue volAvgFinTemperature write:
    volAverage() of T = 333.465

volFieldValue volAvgHeaterTemperature write:
    volAverage() of T = 346.867

surfaceFieldValue averageTempHeaterFinInterface write:
    areaAverage(heater_to_fins) of T = 334.303

Region: fluid Courant Number mean: 1298.75 max: 86417.6
Region: fins Diffusion Number mean: 120.796 max: 167602
Region: heater Diffusion Number mean: 73.7433 max: 540.957
Time = 19s


Solving for solid region fins
GAMG:  Solving for e, Initial residual = 0.285338, Final residual = 0.0080043, No Iterations 1
Min/max T:332.796 336.646

Solving for solid region heater
GAMG:  Solving for e, Initial residual = 0.0626284, Final residual = 1.56803e-05, No Iterations 1
Min/max T:335.849 354.775

Solving for fluid region fluid
DILUPBiCGStab:  Solving for Ux, Initial residual = 0.0021761, Final residual = 9.62651e-05, No Iterations 1
DILUPBiCGStab:  Solving for Uy, Initial residual = 0.00521388, Final residual = 0.000220726, No Iterations 1
DILUPBiCGStab:  Solving for Uz, Initial residual = 0.00511887, Final residual = 0.000225094, No Iterations 1
DILUPBiCGStab:  Solving for h, Initial residual = 0.00338018, Final residual = 0.000235677, No Iterations 1
Min/max T:296.81 336.195
GAMG:  Solving for p_rgh, Initial residual = 0.00842799, Final residual = 3.37343e-05, No Iterations 3
GAMG:  Solving for p_rgh, Initial residual = 0.00129369, Final residual = 6.81618e-06, No Iterations 3
GAMG:  Solving for p_rgh, Initial residual = 0.000207107, Final residual = 1.7083e-06, No Iterations 3
time step continuity errors : sum local = 1.01205e-05, global = -2.06064e-06, cumulative = -2.06064e-06
ExecutionTime = 8.28226 s  ClockTime = 18 s

volFieldValue volAvgFinTemperature write:
    volAverage() of T = 335.486

volFieldValue volAvgHeaterTemperature write:
    volAverage() of T = 348.935

surfaceFieldValue averageTempHeaterFinInterface write:
    areaAverage(heater_to_fins) of T = 336.376

Region: fluid Courant Number mean: 1298.62 max: 86253.1
Region: fins Diffusion Number mean: 120.796 max: 167602
Region: heater Diffusion Number mean: 73.7433 max: 540.957
Time = 20s


Solving for solid region fins
GAMG:  Solving for e, Initial residual = 0.274622, Final residual = 0.00771854, No Iterations 1
Min/max T:334.765 338.706

Solving for solid region heater
GAMG:  Solving for e, Initial residual = 0.0621574, Final residual = 1.53892e-05, No Iterations 1
Min/max T:337.909 356.829

Solving for fluid region fluid
DILUPBiCGStab:  Solving for Ux, Initial residual = 0.00212109, Final residual = 9.35778e-05, No Iterations 1
DILUPBiCGStab:  Solving for Uy, Initial residual = 0.00509782, Final residual = 0.00021665, No Iterations 1
DILUPBiCGStab:  Solving for Uz, Initial residual = 0.00490637, Final residual = 0.00021507, No Iterations 1
DILUPBiCGStab:  Solving for h, Initial residual = 0.00322425, Final residual = 0.000223373, No Iterations 1
Min/max T:296.805 338.241
GAMG:  Solving for p_rgh, Initial residual = 0.00809573, Final residual = 3.3376e-05, No Iterations 3
GAMG:  Solving for p_rgh, Initial residual = 0.00125598, Final residual = 6.73428e-06, No Iterations 3
GAMG:  Solving for p_rgh, Initial residual = 0.000196849, Final residual = 1.65101e-06, No Iterations 3
time step continuity errors : sum local = 9.80374e-06, global = -2.03908e-06, cumulative = -2.03908e-06
ExecutionTime = 8.47264 s  ClockTime = 18 s

volFieldValue volAvgFinTemperature write:
    volAverage() of T = 337.492

volFieldValue volAvgHeaterTemperature write:
    volAverage() of T = 350.988

surfaceFieldValue averageTempHeaterFinInterface write:
    areaAverage(heater_to_fins) of T = 338.434

Region: fluid Courant Number mean: 1298.5 max: 86067.8
Region: fins Diffusion Number mean: 120.796 max: 167602
Region: heater Diffusion Number mean: 73.7433 max: 540.957
Time = 21s


Solving for solid region fins
GAMG:  Solving for e, Initial residual = 0.264593, Final residual = 0.00744465, No Iterations 1
Min/max T:336.72 340.751

Solving for solid region heater
GAMG:  Solving for e, Initial residual = 0.0616916, Final residual = 1.52044e-05, No Iterations 1
Min/max T:339.954 358.868

Solving for fluid region fluid
DILUPBiCGStab:  Solving for Ux, Initial residual = 0.00207046, Final residual = 9.10698e-05, No Iterations 1
DILUPBiCGStab:  Solving for Uy, Initial residual = 0.00499375, Final residual = 0.000213093, No Iterations 1
DILUPBiCGStab:  Solving for Uz, Initial residual = 0.00471199, Final residual = 0.000206018, No Iterations 1
DILUPBiCGStab:  Solving for h, Initial residual = 0.00308192, Final residual = 0.000212251, No Iterations 1
Min/max T:296.799 340.274
GAMG:  Solving for p_rgh, Initial residual = 0.00768289, Final residual = 3.40096e-05, No Iterations 3
GAMG:  Solving for p_rgh, Initial residual = 0.00122033, Final residual = 6.86454e-06, No Iterations 3
GAMG:  Solving for p_rgh, Initial residual = 0.00018893, Final residual = 1.66517e-06, No Iterations 3
time step continuity errors : sum local = 9.91031e-06, global = -2.03647e-06, cumulative = -2.03647e-06
ExecutionTime = 8.65618 s  ClockTime = 19 s

volFieldValue volAvgFinTemperature write:
    volAverage() of T = 339.485

volFieldValue volAvgHeaterTemperature write:
    volAverage() of T = 353.027

surfaceFieldValue averageTempHeaterFinInterface write:
    areaAverage(heater_to_fins) of T = 340.478

Region: fluid Courant Number mean: 1298.37 max: 85861.8
Region: fins Diffusion Number mean: 120.796 max: 167602
Region: heater Diffusion Number mean: 73.7433 max: 540.957
Time = 22s


Solving for solid region fins
GAMG:  Solving for e, Initial residual = 0.255191, Final residual = 0.00718732, No Iterations 1
Min/max T:338.66 342.782

Solving for solid region heater
GAMG:  Solving for e, Initial residual = 0.0612302, Final residual = 1.5088e-05, No Iterations 1
Min/max T:341.986 360.893

Solving for fluid region fluid
DILUPBiCGStab:  Solving for Ux, Initial residual = 0.00202306, Final residual = 8.87203e-05, No Iterations 1
DILUPBiCGStab:  Solving for Uy, Initial residual = 0.00490044, Final residual = 0.000209755, No Iterations 1
DILUPBiCGStab:  Solving for Uz, Initial residual = 0.00453426, Final residual = 0.000197629, No Iterations 1
DILUPBiCGStab:  Solving for h, Initial residual = 0.00295472, Final residual = 0.000202019, No Iterations 1
Min/max T:296.794 342.292
GAMG:  Solving for p_rgh, Initial residual = 0.00744558, Final residual = 3.34949e-05, No Iterations 3
GAMG:  Solving for p_rgh, Initial residual = 0.00118149, Final residual = 6.7465e-06, No Iterations 3
GAMG:  Solving for p_rgh, Initial residual = 0.000179763, Final residual = 1.58288e-06, No Iterations 3
time step continuity errors : sum local = 9.44108e-06, global = -1.96055e-06, cumulative = -1.96055e-06
ExecutionTime = 8.83495 s  ClockTime = 19 s

volFieldValue volAvgFinTemperature write:
    volAverage() of T = 341.463

volFieldValue volAvgHeaterTemperature write:
    volAverage() of T = 355.051

surfaceFieldValue averageTempHeaterFinInterface write:
    areaAverage(heater_to_fins) of T = 342.508

Region: fluid Courant Number mean: 1298.24 max: 85636.4
Region: fins Diffusion Number mean: 120.796 max: 167602
Region: heater Diffusion Number mean: 73.7433 max: 540.957
Time = 23s


Solving for solid region fins
GAMG:  Solving for e, Initial residual = 0.246371, Final residual = 0.00694424, No Iterations 1
Min/max T:340.587 344.799

Solving for solid region heater
GAMG:  Solving for e, Initial residual = 0.0607726, Final residual = 1.50016e-05, No Iterations 1
Min/max T:344 362.904

Solving for fluid region fluid
DILUPBiCGStab:  Solving for Ux, Initial residual = 0.00197817, Final residual = 8.65283e-05, No Iterations 1
DILUPBiCGStab:  Solving for Uy, Initial residual = 0.00481144, Final residual = 0.000206362, No Iterations 1
DILUPBiCGStab:  Solving for Uz, Initial residual = 0.00436844, Final residual = 0.000189941, No Iterations 1
DILUPBiCGStab:  Solving for h, Initial residual = 0.00283829, Final residual = 0.000192583, No Iterations 1
Min/max T:296.788 344.296
GAMG:  Solving for p_rgh, Initial residual = 0.00709194, Final residual = 3.17333e-05, No Iterations 3
GAMG:  Solving for p_rgh, Initial residual = 0.00109797, Final residual = 5.68886e-06, No Iterations 3
GAMG:  Solving for p_rgh, Initial residual = 0.000174153, Final residual = 1.36808e-06, No Iterations 3
time step continuity errors : sum local = 8.17515e-06, global = -1.65061e-06, cumulative = -1.65061e-06
ExecutionTime = 8.99868 s  ClockTime = 19 s

volFieldValue volAvgFinTemperature write:
    volAverage() of T = 343.428

volFieldValue volAvgHeaterTemperature write:
    volAverage() of T = 357.062

surfaceFieldValue averageTempHeaterFinInterface write:
    areaAverage(heater_to_fins) of T = 344.523

Region: fluid Courant Number mean: 1298.12 max: 85393.3
Region: fins Diffusion Number mean: 120.796 max: 167602
Region: heater Diffusion Number mean: 73.7433 max: 540.957
Time = 24s


Solving for solid region fins
GAMG:  Solving for e, Initial residual = 0.238073, Final residual = 0.00671276, No Iterations 1
Min/max T:342.5 346.801

Solving for solid region heater
GAMG:  Solving for e, Initial residual = 0.0603189, Final residual = 1.49206e-05, No Iterations 1
Min/max T:346 364.901

Solving for fluid region fluid
DILUPBiCGStab:  Solving for Ux, Initial residual = 0.00193547, Final residual = 8.44307e-05, No Iterations 1
DILUPBiCGStab:  Solving for Uy, Initial residual = 0.00472235, Final residual = 0.000202705, No Iterations 1
DILUPBiCGStab:  Solving for Uz, Initial residual = 0.00421322, Final residual = 0.000182714, No Iterations 1
DILUPBiCGStab:  Solving for h, Initial residual = 0.00273136, Final residual = 0.000183695, No Iterations 1
Min/max T:296.782 346.287
GAMG:  Solving for p_rgh, Initial residual = 0.0069421, Final residual = 3.19302e-05, No Iterations 3
GAMG:  Solving for p_rgh, Initial residual = 0.00105186, Final residual = 5.46849e-06, No Iterations 3
GAMG:  Solving for p_rgh, Initial residual = 0.000168155, Final residual = 1.3334e-06, No Iterations 3
time step continuity errors : sum local = 7.98193e-06, global = -1.55173e-06, cumulative = -1.55173e-06
ExecutionTime = 9.16912 s  ClockTime = 19 s

volFieldValue volAvgFinTemperature write:
    volAverage() of T = 345.378

volFieldValue volAvgHeaterTemperature write:
    volAverage() of T = 359.058

surfaceFieldValue averageTempHeaterFinInterface write:
    areaAverage(heater_to_fins) of T = 346.524

Region: fluid Courant Number mean: 1298 max: 85135
Region: fins Diffusion Number mean: 120.796 max: 167602
Region: heater Diffusion Number mean: 73.7433 max: 540.957
Time = 25s


Solving for solid region fins
GAMG:  Solving for e, Initial residual = 0.230251, Final residual = 0.00649246, No Iterations 1
Min/max T:344.399 348.79

Solving for solid region heater
GAMG:  Solving for e, Initial residual = 0.0598694, Final residual = 1.48349e-05, No Iterations 1
Min/max T:347.986 366.883

Solving for fluid region fluid
DILUPBiCGStab:  Solving for Ux, Initial residual = 0.00189481, Final residual = 8.24386e-05, No Iterations 1
DILUPBiCGStab:  Solving for Uy, Initial residual = 0.0046361, Final residual = 0.00019919, No Iterations 1
DILUPBiCGStab:  Solving for Uz, Initial residual = 0.00407023, Final residual = 0.000176179, No Iterations 1
DILUPBiCGStab:  Solving for h, Initial residual = 0.00263193, Final residual = 0.000175213, No Iterations 1
Min/max T:296.777 348.264
GAMG:  Solving for p_rgh, Initial residual = 0.00673382, Final residual = 2.93841e-05, No Iterations 3
GAMG:  Solving for p_rgh, Initial residual = 0.000991236, Final residual = 5.071e-06, No Iterations 3
GAMG:  Solving for p_rgh, Initial residual = 0.000159054, Final residual = 1.23417e-06, No Iterations 3
time step continuity errors : sum local = 7.40196e-06, global = -1.47422e-06, cumulative = -1.47422e-06
ExecutionTime = 9.32352 s  ClockTime = 20 s

volFieldValue volAvgFinTemperature write:
    volAverage() of T = 347.316

volFieldValue volAvgHeaterTemperature write:
    volAverage() of T = 361.041

surfaceFieldValue averageTempHeaterFinInterface write:
    areaAverage(heater_to_fins) of T = 348.512

Region: fluid Courant Number mean: 1297.88 max: 84864.6
Region: fins Diffusion Number mean: 120.796 max: 167602
Region: heater Diffusion Number mean: 73.7433 max: 540.957
Time = 26s


Solving for solid region fins
GAMG:  Solving for e, Initial residual = 0.222809, Final residual = 0.00628132, No Iterations 1
Min/max T:346.285 350.765

Solving for solid region heater
GAMG:  Solving for e, Initial residual = 0.0594239, Final residual = 1.47454e-05, No Iterations 1
Min/max T:349.958 368.853

Solving for fluid region fluid
DILUPBiCGStab:  Solving for Ux, Initial residual = 0.00185583, Final residual = 8.05066e-05, No Iterations 1
DILUPBiCGStab:  Solving for Uy, Initial residual = 0.00454185, Final residual = 0.000195333, No Iterations 1
DILUPBiCGStab:  Solving for Uz, Initial residual = 0.00393125, Final residual = 0.00016987, No Iterations 1
DILUPBiCGStab:  Solving for h, Initial residual = 0.00253885, Final residual = 0.000167152, No Iterations 1
Min/max T:296.771 350.228
GAMG:  Solving for p_rgh, Initial residual = 0.0065337, Final residual = 2.86224e-05, No Iterations 3
GAMG:  Solving for p_rgh, Initial residual = 0.000965958, Final residual = 4.92007e-06, No Iterations 3
GAMG:  Solving for p_rgh, Initial residual = 0.000154448, Final residual = 1.19683e-06, No Iterations 3
time step continuity errors : sum local = 7.19088e-06, global = -1.42418e-06, cumulative = -1.42418e-06
ExecutionTime = 9.4838 s  ClockTime = 20 s

volFieldValue volAvgFinTemperature write:
    volAverage() of T = 349.239

volFieldValue volAvgHeaterTemperature write:
    volAverage() of T = 363.01

surfaceFieldValue averageTempHeaterFinInterface write:
    areaAverage(heater_to_fins) of T = 350.485

Region: fluid Courant Number mean: 1297.76 max: 84585.4
Region: fins Diffusion Number mean: 120.796 max: 167602
Region: heater Diffusion Number mean: 73.7433 max: 540.957
Time = 27s


Solving for solid region fins
GAMG:  Solving for e, Initial residual = 0.215699, Final residual = 0.00607864, No Iterations 1
Min/max T:348.158 352.727

Solving for solid region heater
GAMG:  Solving for e, Initial residual = 0.0589822, Final residual = 1.46527e-05, No Iterations 1
Min/max T:351.917 370.808

Solving for fluid region fluid
DILUPBiCGStab:  Solving for Ux, Initial residual = 0.00181857, Final residual = 7.86828e-05, No Iterations 1
DILUPBiCGStab:  Solving for Uy, Initial residual = 0.00444098, Final residual = 0.000191206, No Iterations 1
DILUPBiCGStab:  Solving for Uz, Initial residual = 0.00379985, Final residual = 0.000163902, No Iterations 1
DILUPBiCGStab:  Solving for h, Initial residual = 0.00245155, Final residual = 0.000159583, No Iterations 1
Min/max T:296.765 352.178
GAMG:  Solving for p_rgh, Initial residual = 0.00632985, Final residual = 2.74227e-05, No Iterations 3
GAMG:  Solving for p_rgh, Initial residual = 0.000931354, Final residual = 4.7437e-06, No Iterations 3
GAMG:  Solving for p_rgh, Initial residual = 0.000149038, Final residual = 1.14251e-06, No Iterations 3
time step continuity errors : sum local = 6.87666e-06, global = -1.36799e-06, cumulative = -1.36799e-06
ExecutionTime = 9.64424 s  ClockTime = 20 s

volFieldValue volAvgFinTemperature write:
    volAverage() of T = 351.15

volFieldValue volAvgHeaterTemperature write:
    volAverage() of T = 364.965

surfaceFieldValue averageTempHeaterFinInterface write:
    areaAverage(heater_to_fins) of T = 352.445

Region: fluid Courant Number mean: 1297.65 max: 84300.5
Region: fins Diffusion Number mean: 120.796 max: 167602
Region: heater Diffusion Number mean: 73.7433 max: 540.957
Time = 28s


Solving for solid region fins
GAMG:  Solving for e, Initial residual = 0.208961, Final residual = 0.00588563, No Iterations 1
Min/max T:350.018 354.674

Solving for solid region heater
GAMG:  Solving for e, Initial residual = 0.0585444, Final residual = 1.45561e-05, No Iterations 1
Min/max T:353.861 372.75

Solving for fluid region fluid
DILUPBiCGStab:  Solving for Ux, Initial residual = 0.00178279, Final residual = 7.69253e-05, No Iterations 1
DILUPBiCGStab:  Solving for Uy, Initial residual = 0.00433425, Final residual = 0.000186778, No Iterations 1
DILUPBiCGStab:  Solving for Uz, Initial residual = 0.00367434, Final residual = 0.000158165, No Iterations 1
DILUPBiCGStab:  Solving for h, Initial residual = 0.0023685, Final residual = 0.000152439, No Iterations 1
Min/max T:296.759 354.114
GAMG:  Solving for p_rgh, Initial residual = 0.00615148, Final residual = 2.65235e-05, No Iterations 3
GAMG:  Solving for p_rgh, Initial residual = 0.000905903, Final residual = 4.58495e-06, No Iterations 3
GAMG:  Solving for p_rgh, Initial residual = 0.000145042, Final residual = 1.10163e-06, No Iterations 3
time step continuity errors : sum local = 6.64186e-06, global = -1.31564e-06, cumulative = -1.31564e-06
ExecutionTime = 9.80153 s  ClockTime = 21 s

volFieldValue volAvgFinTemperature write:
    volAverage() of T = 353.047

volFieldValue volAvgHeaterTemperature write:
    volAverage() of T = 366.906

surfaceFieldValue averageTempHeaterFinInterface write:
    areaAverage(heater_to_fins) of T = 354.391

Region: fluid Courant Number mean: 1297.53 max: 84012.5
Region: fins Diffusion Number mean: 120.796 max: 167602
Region: heater Diffusion Number mean: 73.7433 max: 540.957
Time = 29s


Solving for solid region fins
GAMG:  Solving for e, Initial residual = 0.202584, Final residual = 0.00570183, No Iterations 1
Min/max T:351.865 356.608

Solving for solid region heater
GAMG:  Solving for e, Initial residual = 0.0581106, Final residual = 1.44544e-05, No Iterations 1
Min/max T:355.793 374.678

Solving for fluid region fluid
DILUPBiCGStab:  Solving for Ux, Initial residual = 0.00174805, Final residual = 7.52002e-05, No Iterations 1
DILUPBiCGStab:  Solving for Uy, Initial residual = 0.00422888, Final residual = 0.000182174, No Iterations 1
DILUPBiCGStab:  Solving for Uz, Initial residual = 0.00355401, Final residual = 0.000152579, No Iterations 1
DILUPBiCGStab:  Solving for h, Initial residual = 0.0022886, Final residual = 0.000145823, No Iterations 1
Min/max T:296.753 356.037
GAMG:  Solving for p_rgh, Initial residual = 0.00603278, Final residual = 2.57026e-05, No Iterations 3
GAMG:  Solving for p_rgh, Initial residual = 0.000888707, Final residual = 4.44016e-06, No Iterations 3
GAMG:  Solving for p_rgh, Initial residual = 0.000142129, Final residual = 1.05165e-06, No Iterations 3
time step continuity errors : sum local = 6.35095e-06, global = -1.25194e-06, cumulative = -1.25194e-06
ExecutionTime = 9.96855 s  ClockTime = 21 s

volFieldValue volAvgFinTemperature write:
    volAverage() of T = 354.931

volFieldValue volAvgHeaterTemperature write:
    volAverage() of T = 368.834

surfaceFieldValue averageTempHeaterFinInterface write:
    areaAverage(heater_to_fins) of T = 356.324

Region: fluid Courant Number mean: 1297.42 max: 83724.1
Region: fins Diffusion Number mean: 120.796 max: 167602
Region: heater Diffusion Number mean: 73.7433 max: 540.957
Time = 30s


Solving for solid region fins
GAMG:  Solving for e, Initial residual = 0.196545, Final residual = 0.00552771, No Iterations 1
Min/max T:353.699 358.529

Solving for solid region heater
GAMG:  Solving for e, Initial residual = 0.0576805, Final residual = 1.43494e-05, No Iterations 1
Min/max T:357.711 376.593

Solving for fluid region fluid
DILUPBiCGStab:  Solving for Ux, Initial residual = 0.00171401, Final residual = 7.35137e-05, No Iterations 1
DILUPBiCGStab:  Solving for Uy, Initial residual = 0.00412418, Final residual = 0.000177493, No Iterations 1
DILUPBiCGStab:  Solving for Uz, Initial residual = 0.0034397, Final residual = 0.00014723, No Iterations 1
DILUPBiCGStab:  Solving for h, Initial residual = 0.00221196, Final residual = 0.000139607, No Iterations 1
Min/max T:296.747 357.946
GAMG:  Solving for p_rgh, Initial residual = 0.00594845, Final residual = 2.51186e-05, No Iterations 3
GAMG:  Solving for p_rgh, Initial residual = 0.000876409, Final residual = 4.32482e-06, No Iterations 3
GAMG:  Solving for p_rgh, Initial residual = 0.000139589, Final residual = 1.01004e-06, No Iterations 3
time step continuity errors : sum local = 6.1091e-06, global = -1.19518e-06, cumulative = -1.19518e-06
ExecutionTime = 10.1492 s  ClockTime = 21 s

volFieldValue volAvgFinTemperature write:
    volAverage() of T = 356.802

volFieldValue volAvgHeaterTemperature write:
    volAverage() of T = 370.749

surfaceFieldValue averageTempHeaterFinInterface write:
    areaAverage(heater_to_fins) of T = 358.243

Region: fluid Courant Number mean: 1297.31 max: 83437.6
Region: fins Diffusion Number mean: 120.796 max: 167602
Region: heater Diffusion Number mean: 73.7433 max: 540.957
Time = 31s


Solving for solid region fins
GAMG:  Solving for e, Initial residual = 0.190793, Final residual = 0.00537871, No Iterations 1
Min/max T:355.521 360.436

Solving for solid region heater
GAMG:  Solving for e, Initial residual = 0.0572512, Final residual = 1.42724e-05, No Iterations 1
Min/max T:359.615 378.495

Solving for fluid region fluid
DILUPBiCGStab:  Solving for Ux, Initial residual = 0.00168067, Final residual = 7.18758e-05, No Iterations 1
DILUPBiCGStab:  Solving for Uy, Initial residual = 0.00402359, Final residual = 0.000172915, No Iterations 1
DILUPBiCGStab:  Solving for Uz, Initial residual = 0.00333117, Final residual = 0.000142219, No Iterations 1
DILUPBiCGStab:  Solving for h, Initial residual = 0.0021396, Final residual = 0.000133761, No Iterations 1
Min/max T:296.742 359.842
GAMG:  Solving for p_rgh, Initial residual = 0.00595852, Final residual = 2.49321e-05, No Iterations 3
GAMG:  Solving for p_rgh, Initial residual = 0.00087971, Final residual = 4.28062e-06, No Iterations 3
GAMG:  Solving for p_rgh, Initial residual = 0.000139321, Final residual = 9.94351e-07, No Iterations 3
time step continuity errors : sum local = 6.02268e-06, global = -1.16729e-06, cumulative = -1.16729e-06
ExecutionTime = 10.3188 s  ClockTime = 22 s

volFieldValue volAvgFinTemperature write:
    volAverage() of T = 358.66

volFieldValue volAvgHeaterTemperature write:
    volAverage() of T = 372.65

surfaceFieldValue averageTempHeaterFinInterface write:
    areaAverage(heater_to_fins) of T = 360.149

Region: fluid Courant Number mean: 1297.21 max: 83154.8
Region: fins Diffusion Number mean: 120.796 max: 167602
Region: heater Diffusion Number mean: 73.7433 max: 540.957
Time = 32s


Solving for solid region fins
GAMG:  Solving for e, Initial residual = 0.185324, Final residual = 0.00523592, No Iterations 1
Min/max T:357.329 362.33

Solving for solid region heater
GAMG:  Solving for e, Initial residual = 0.0568248, Final residual = 1.4198e-05, No Iterations 1
Min/max T:361.507 380.383

Solving for fluid region fluid
DILUPBiCGStab:  Solving for Ux, Initial residual = 0.0016483, Final residual = 7.02938e-05, No Iterations 1
DILUPBiCGStab:  Solving for Uy, Initial residual = 0.00392557, Final residual = 0.000168492, No Iterations 1
DILUPBiCGStab:  Solving for Uz, Initial residual = 0.00322686, Final residual = 0.000137471, No Iterations 1
DILUPBiCGStab:  Solving for h, Initial residual = 0.00207022, Final residual = 0.000128262, No Iterations 1
Min/max T:296.736 361.725
GAMG:  Solving for p_rgh, Initial residual = 0.00574858, Final residual = 2.39053e-05, No Iterations 3
GAMG:  Solving for p_rgh, Initial residual = 0.000865972, Final residual = 4.2666e-06, No Iterations 3
GAMG:  Solving for p_rgh, Initial residual = 0.000135631, Final residual = 9.52252e-07, No Iterations 3
time step continuity errors : sum local = 5.77698e-06, global = -1.08385e-06, cumulative = -1.08385e-06
ExecutionTime = 10.4747 s  ClockTime = 22 s

volFieldValue volAvgFinTemperature write:
    volAverage() of T = 360.504

volFieldValue volAvgHeaterTemperature write:
    volAverage() of T = 374.538

surfaceFieldValue averageTempHeaterFinInterface write:
    areaAverage(heater_to_fins) of T = 362.041

Region: fluid Courant Number mean: 1297.1 max: 82877.5
Region: fins Diffusion Number mean: 120.796 max: 167602
Region: heater Diffusion Number mean: 73.7433 max: 540.957
Time = 33s


Solving for solid region fins
GAMG:  Solving for e, Initial residual = 0.180107, Final residual = 0.00509626, No Iterations 1
Min/max T:359.125 364.211

Solving for solid region heater
GAMG:  Solving for e, Initial residual = 0.0564019, Final residual = 1.41192e-05, No Iterations 1
Min/max T:363.385 382.258

Solving for fluid region fluid
DILUPBiCGStab:  Solving for Ux, Initial residual = 0.00161652, Final residual = 6.87292e-05, No Iterations 1
DILUPBiCGStab:  Solving for Uy, Initial residual = 0.00382384, Final residual = 0.000164068, No Iterations 1
DILUPBiCGStab:  Solving for Uz, Initial residual = 0.00312238, Final residual = 0.000132717, No Iterations 1
DILUPBiCGStab:  Solving for h, Initial residual = 0.00200315, Final residual = 0.000123026, No Iterations 1
Min/max T:296.73 363.595
GAMG:  Solving for p_rgh, Initial residual = 0.00560968, Final residual = 2.24704e-05, No Iterations 3
GAMG:  Solving for p_rgh, Initial residual = 0.000839696, Final residual = 4.02965e-06, No Iterations 3
GAMG:  Solving for p_rgh, Initial residual = 0.000129169, Final residual = 8.93764e-07, No Iterations 3
time step continuity errors : sum local = 5.43058e-06, global = -1.03866e-06, cumulative = -1.03866e-06
ExecutionTime = 10.6411 s  ClockTime = 22 s

volFieldValue volAvgFinTemperature write:
    volAverage() of T = 362.336

volFieldValue volAvgHeaterTemperature write:
    volAverage() of T = 376.413

surfaceFieldValue averageTempHeaterFinInterface write:
    areaAverage(heater_to_fins) of T = 363.921

Region: fluid Courant Number mean: 1297 max: 82606.7
Region: fins Diffusion Number mean: 120.796 max: 167602
Region: heater Diffusion Number mean: 73.7433 max: 540.957
Time = 34s


Solving for solid region fins
GAMG:  Solving for e, Initial residual = 0.175126, Final residual = 0.00496032, No Iterations 1
Min/max T:360.907 366.079

Solving for solid region heater
GAMG:  Solving for e, Initial residual = 0.0559826, Final residual = 1.40364e-05, No Iterations 1
Min/max T:365.25 384.12

Solving for fluid region fluid
DILUPBiCGStab:  Solving for Ux, Initial residual = 0.00158531, Final residual = 6.72008e-05, No Iterations 1
DILUPBiCGStab:  Solving for Uy, Initial residual = 0.00373183, Final residual = 0.000160066, No Iterations 1
DILUPBiCGStab:  Solving for Uz, Initial residual = 0.0030235, Final residual = 0.00012814, No Iterations 1
DILUPBiCGStab:  Solving for h, Initial residual = 0.00193854, Final residual = 0.000117952, No Iterations 1
Min/max T:296.724 365.452
GAMG:  Solving for p_rgh, Initial residual = 0.00536213, Final residual = 2.19973e-05, No Iterations 3
GAMG:  Solving for p_rgh, Initial residual = 0.000805562, Final residual = 3.78641e-06, No Iterations 3
GAMG:  Solving for p_rgh, Initial residual = 0.000123504, Final residual = 8.63389e-07, No Iterations 3
time step continuity errors : sum local = 5.25335e-06, global = -1.00987e-06, cumulative = -1.00987e-06
ExecutionTime = 10.7913 s  ClockTime = 23 s

volFieldValue volAvgFinTemperature write:
    volAverage() of T = 364.155

volFieldValue volAvgHeaterTemperature write:
    volAverage() of T = 378.275

surfaceFieldValue averageTempHeaterFinInterface write:
    areaAverage(heater_to_fins) of T = 365.787

Region: fluid Courant Number mean: 1296.9 max: 82343.2
Region: fins Diffusion Number mean: 120.796 max: 167602
Region: heater Diffusion Number mean: 73.7433 max: 540.957
Time = 35s


Solving for solid region fins
GAMG:  Solving for e, Initial residual = 0.170368, Final residual = 0.00483016, No Iterations 1
Min/max T:362.677 367.933

Solving for solid region heater
GAMG:  Solving for e, Initial residual = 0.0555666, Final residual = 1.39532e-05, No Iterations 1
Min/max T:367.102 385.969

Solving for fluid region fluid
DILUPBiCGStab:  Solving for Ux, Initial residual = 0.00155494, Final residual = 6.57402e-05, No Iterations 1
DILUPBiCGStab:  Solving for Uy, Initial residual = 0.00364613, Final residual = 0.000156162, No Iterations 1
DILUPBiCGStab:  Solving for Uz, Initial residual = 0.00292941, Final residual = 0.000123794, No Iterations 1
DILUPBiCGStab:  Solving for h, Initial residual = 0.00187682, Final residual = 0.00011321, No Iterations 1
Min/max T:296.719 367.295
GAMG:  Solving for p_rgh, Initial residual = 0.00519488, Final residual = 2.10875e-05, No Iterations 3
GAMG:  Solving for p_rgh, Initial residual = 0.000769818, Final residual = 7.57788e-06, No Iterations 2
GAMG:  Solving for p_rgh, Initial residual = 0.000110324, Final residual = 6.02502e-07, No Iterations 4
time step continuity errors : sum local = 3.67075e-06, global = -6.58935e-07, cumulative = -6.58935e-07
ExecutionTime = 10.9405 s  ClockTime = 23 s

volFieldValue volAvgFinTemperature write:
    volAverage() of T = 365.961

volFieldValue volAvgHeaterTemperature write:
    volAverage() of T = 380.123

surfaceFieldValue averageTempHeaterFinInterface write:
    areaAverage(heater_to_fins) of T = 367.64

Region: fluid Courant Number mean: 1296.8 max: 82087.5
Region: fins Diffusion Number mean: 120.796 max: 167602
Region: heater Diffusion Number mean: 73.7433 max: 540.957
Time = 36s


Solving for solid region fins
GAMG:  Solving for e, Initial residual = 0.165825, Final residual = 0.00471094, No Iterations 1
Min/max T:364.435 369.775

Solving for solid region heater
GAMG:  Solving for e, Initial residual = 0.0551528, Final residual = 1.38808e-05, No Iterations 1
Min/max T:368.94 387.805

Solving for fluid region fluid
DILUPBiCGStab:  Solving for Ux, Initial residual = 0.00152517, Final residual = 6.432e-05, No Iterations 1
DILUPBiCGStab:  Solving for Uy, Initial residual = 0.00356318, Final residual = 0.000152446, No Iterations 1
DILUPBiCGStab:  Solving for Uz, Initial residual = 0.00283945, Final residual = 0.000119654, No Iterations 1
DILUPBiCGStab:  Solving for h, Initial residual = 0.00181795, Final residual = 0.000108686, No Iterations 1
Min/max T:296.713 369.126
GAMG:  Solving for p_rgh, Initial residual = 0.00503503, Final residual = 2.03162e-05, No Iterations 3
GAMG:  Solving for p_rgh, Initial residual = 0.000740327, Final residual = 7.23014e-06, No Iterations 2
GAMG:  Solving for p_rgh, Initial residual = 0.000106093, Final residual = 5.81004e-07, No Iterations 4
time step continuity errors : sum local = 3.54455e-06, global = -6.38496e-07, cumulative = -6.38496e-07
ExecutionTime = 11.1042 s  ClockTime = 23 s

volFieldValue volAvgFinTemperature write:
    volAverage() of T = 367.755

volFieldValue volAvgHeaterTemperature write:
    volAverage() of T = 381.959

surfaceFieldValue averageTempHeaterFinInterface write:
    areaAverage(heater_to_fins) of T = 369.48

Region: fluid Courant Number mean: 1296.7 max: 81840
Region: fins Diffusion Number mean: 120.796 max: 167602
Region: heater Diffusion Number mean: 73.7433 max: 540.957
Time = 37s


Solving for solid region fins
GAMG:  Solving for e, Initial residual = 0.161485, Final residual = 0.00459968, No Iterations 1
Min/max T:366.18 371.604

Solving for solid region heater
GAMG:  Solving for e, Initial residual = 0.0547413, Final residual = 1.38164e-05, No Iterations 1
Min/max T:370.767 389.628

Solving for fluid region fluid
DILUPBiCGStab:  Solving for Ux, Initial residual = 0.00149594, Final residual = 6.29283e-05, No Iterations 1
DILUPBiCGStab:  Solving for Uy, Initial residual = 0.0034853, Final residual = 0.000148906, No Iterations 1
DILUPBiCGStab:  Solving for Uz, Initial residual = 0.00275333, Final residual = 0.000115781, No Iterations 1
DILUPBiCGStab:  Solving for h, Initial residual = 0.00176204, Final residual = 0.000104512, No Iterations 1
Min/max T:296.708 370.944
GAMG:  Solving for p_rgh, Initial residual = 0.00491242, Final residual = 1.97347e-05, No Iterations 3
GAMG:  Solving for p_rgh, Initial residual = 0.000719581, Final residual = 7.1273e-06, No Iterations 2
GAMG:  Solving for p_rgh, Initial residual = 0.000103426, Final residual = 5.76626e-07, No Iterations 4
time step continuity errors : sum local = 3.52237e-06, global = -6.25769e-07, cumulative = -6.25769e-07
ExecutionTime = 11.2782 s  ClockTime = 23 s

volFieldValue volAvgFinTemperature write:
    volAverage() of T = 369.535

volFieldValue volAvgHeaterTemperature write:
    volAverage() of T = 383.782

surfaceFieldValue averageTempHeaterFinInterface write:
    areaAverage(heater_to_fins) of T = 371.308

Region: fluid Courant Number mean: 1296.61 max: 81601
Region: fins Diffusion Number mean: 120.796 max: 167602
Region: heater Diffusion Number mean: 73.7433 max: 540.957
Time = 38s


Solving for solid region fins
GAMG:  Solving for e, Initial residual = 0.15733, Final residual = 0.00449388, No Iterations 1
Min/max T:367.913 373.42

Solving for solid region heater
GAMG:  Solving for e, Initial residual = 0.0543322, Final residual = 1.37559e-05, No Iterations 1
Min/max T:372.58 391.439

Solving for fluid region fluid
DILUPBiCGStab:  Solving for Ux, Initial residual = 0.00146709, Final residual = 6.15544e-05, No Iterations 1
DILUPBiCGStab:  Solving for Uy, Initial residual = 0.00341029, Final residual = 0.000145563, No Iterations 1
DILUPBiCGStab:  Solving for Uz, Initial residual = 0.00266998, Final residual = 0.000112054, No Iterations 1
DILUPBiCGStab:  Solving for h, Initial residual = 0.00170846, Final residual = 0.000100657, No Iterations 1
Min/max T:296.703 372.749
GAMG:  Solving for p_rgh, Initial residual = 0.00476606, Final residual = 1.91194e-05, No Iterations 3
GAMG:  Solving for p_rgh, Initial residual = 0.000698789, Final residual = 6.96502e-06, No Iterations 2
GAMG:  Solving for p_rgh, Initial residual = 0.000100779, Final residual = 5.6328e-07, No Iterations 4
time step continuity errors : sum local = 3.44498e-06, global = -6.13951e-07, cumulative = -6.13951e-07
ExecutionTime = 11.4464 s  ClockTime = 24 s

volFieldValue volAvgFinTemperature write:
    volAverage() of T = 371.304

volFieldValue volAvgHeaterTemperature write:
    volAverage() of T = 385.592

surfaceFieldValue averageTempHeaterFinInterface write:
    areaAverage(heater_to_fins) of T = 373.122

Region: fluid Courant Number mean: 1296.52 max: 81370.6
Region: fins Diffusion Number mean: 120.796 max: 167602
Region: heater Diffusion Number mean: 73.7433 max: 540.957
Time = 39s


Solving for solid region fins
GAMG:  Solving for e, Initial residual = 0.15334, Final residual = 0.00438896, No Iterations 1
Min/max T:369.633 375.223

Solving for solid region heater
GAMG:  Solving for e, Initial residual = 0.0539265, Final residual = 1.36902e-05, No Iterations 1
Min/max T:374.38 393.236

Solving for fluid region fluid
DILUPBiCGStab:  Solving for Ux, Initial residual = 0.00143871, Final residual = 6.02177e-05, No Iterations 1
DILUPBiCGStab:  Solving for Uy, Initial residual = 0.00333821, Final residual = 0.000142358, No Iterations 1
DILUPBiCGStab:  Solving for Uz, Initial residual = 0.00258933, Final residual = 0.000108441, No Iterations 1
DILUPBiCGStab:  Solving for h, Initial residual = 0.00165699, Final residual = 9.68298e-05, No Iterations 1
Min/max T:296.697 374.542
GAMG:  Solving for p_rgh, Initial residual = 0.00462345, Final residual = 1.87003e-05, No Iterations 3
GAMG:  Solving for p_rgh, Initial residual = 0.000681316, Final residual = 3.17483e-06, No Iterations 3
GAMG:  Solving for p_rgh, Initial residual = 0.000105341, Final residual = 7.57288e-07, No Iterations 3
time step continuity errors : sum local = 4.63685e-06, global = -8.93459e-07, cumulative = -8.93459e-07
ExecutionTime = 11.5969 s  ClockTime = 24 s

volFieldValue volAvgFinTemperature write:
    volAverage() of T = 373.059

volFieldValue volAvgHeaterTemperature write:
    volAverage() of T = 387.389

surfaceFieldValue averageTempHeaterFinInterface write:
    areaAverage(heater_to_fins) of T = 374.924

Region: fluid Courant Number mean: 1296.42 max: 81148.6
Region: fins Diffusion Number mean: 120.796 max: 167602
Region: heater Diffusion Number mean: 73.7433 max: 540.957
Time = 40s


Solving for solid region fins
GAMG:  Solving for e, Initial residual = 0.149513, Final residual = 0.00428601, No Iterations 1
Min/max T:371.34 377.013

Solving for solid region heater
GAMG:  Solving for e, Initial residual = 0.0535242, Final residual = 1.36199e-05, No Iterations 1
Min/max T:376.168 395.021

Solving for fluid region fluid
DILUPBiCGStab:  Solving for Ux, Initial residual = 0.001411, Final residual = 5.89045e-05, No Iterations 1
DILUPBiCGStab:  Solving for Uy, Initial residual = 0.00326915, Final residual = 0.000139375, No Iterations 1
DILUPBiCGStab:  Solving for Uz, Initial residual = 0.00251209, Final residual = 0.000104962, No Iterations 1
DILUPBiCGStab:  Solving for h, Initial residual = 0.00160764, Final residual = 9.32939e-05, No Iterations 1
Min/max T:296.692 376.322
GAMG:  Solving for p_rgh, Initial residual = 0.00452549, Final residual = 1.83211e-05, No Iterations 3
GAMG:  Solving for p_rgh, Initial residual = 0.000665117, Final residual = 3.14618e-06, No Iterations 3
GAMG:  Solving for p_rgh, Initial residual = 0.000103259, Final residual = 7.50285e-07, No Iterations 3
time step continuity errors : sum local = 4.59921e-06, global = -8.81015e-07, cumulative = -8.81015e-07
ExecutionTime = 11.7519 s  ClockTime = 24 s

volFieldValue volAvgFinTemperature write:
    volAverage() of T = 374.802

volFieldValue volAvgHeaterTemperature write:
    volAverage() of T = 389.174

surfaceFieldValue averageTempHeaterFinInterface write:
    areaAverage(heater_to_fins) of T = 376.713

Region: fluid Courant Number mean: 1296.34 max: 80934.9
Region: fins Diffusion Number mean: 120.796 max: 167602
Region: heater Diffusion Number mean: 73.7433 max: 540.957
Time = 41s


Solving for solid region fins
GAMG:  Solving for e, Initial residual = 0.145839, Final residual = 0.0041859, No Iterations 1
Min/max T:373.036 378.791

Solving for solid region heater
GAMG:  Solving for e, Initial residual = 0.0531251, Final residual = 1.35464e-05, No Iterations 1
Min/max T:377.943 396.794

Solving for fluid region fluid
DILUPBiCGStab:  Solving for Ux, Initial residual = 0.00138387, Final residual = 5.76404e-05, No Iterations 1
DILUPBiCGStab:  Solving for Uy, Initial residual = 0.00320256, Final residual = 0.00013651, No Iterations 1
DILUPBiCGStab:  Solving for Uz, Initial residual = 0.0024386, Final residual = 0.000101656, No Iterations 1
DILUPBiCGStab:  Solving for h, Initial residual = 0.00156068, Final residual = 8.9925e-05, No Iterations 1
Min/max T:296.687 378.089
GAMG:  Solving for p_rgh, Initial residual = 0.00443125, Final residual = 1.774e-05, No Iterations 3
GAMG:  Solving for p_rgh, Initial residual = 0.000648747, Final residual = 3.04873e-06, No Iterations 3
GAMG:  Solving for p_rgh, Initial residual = 0.00010024, Final residual = 7.22508e-07, No Iterations 3
time step continuity errors : sum local = 4.43415e-06, global = -8.51771e-07, cumulative = -8.51771e-07
ExecutionTime = 11.8999 s  ClockTime = 25 s

volFieldValue volAvgFinTemperature write:
    volAverage() of T = 376.533

volFieldValue volAvgHeaterTemperature write:
    volAverage() of T = 390.946

surfaceFieldValue averageTempHeaterFinInterface write:
    areaAverage(heater_to_fins) of T = 378.49

Region: fluid Courant Number mean: 1296.25 max: 80728.9
Region: fins Diffusion Number mean: 120.796 max: 167602
Region: heater Diffusion Number mean: 73.7433 max: 540.957
Time = 42s


Solving for solid region fins
GAMG:  Solving for e, Initial residual = 0.142314, Final residual = 0.00408912, No Iterations 1
Min/max T:374.719 380.556

Solving for solid region heater
GAMG:  Solving for e, Initial residual = 0.0527291, Final residual = 1.34705e-05, No Iterations 1
Min/max T:379.706 398.554

Solving for fluid region fluid
DILUPBiCGStab:  Solving for Ux, Initial residual = 0.00135714, Final residual = 5.63971e-05, No Iterations 1
DILUPBiCGStab:  Solving for Uy, Initial residual = 0.00313968, Final residual = 0.000133833, No Iterations 1
DILUPBiCGStab:  Solving for Uz, Initial residual = 0.00236851, Final residual = 9.85011e-05, No Iterations 1
DILUPBiCGStab:  Solving for h, Initial residual = 0.00151556, Final residual = 8.67075e-05, No Iterations 1
Min/max T:296.682 379.844
GAMG:  Solving for p_rgh, Initial residual = 0.00433347, Final residual = 1.73189e-05, No Iterations 3
GAMG:  Solving for p_rgh, Initial residual = 0.000636621, Final residual = 3.00416e-06, No Iterations 3
GAMG:  Solving for p_rgh, Initial residual = 9.8296e-05, Final residual = 7.1083e-07, No Iterations 3
time step continuity errors : sum local = 4.36758e-06, global = -8.33548e-07, cumulative = -8.33548e-07
ExecutionTime = 12.0607 s  ClockTime = 25 s

volFieldValue volAvgFinTemperature write:
    volAverage() of T = 378.252

volFieldValue volAvgHeaterTemperature write:
    volAverage() of T = 392.706

surfaceFieldValue averageTempHeaterFinInterface write:
    areaAverage(heater_to_fins) of T = 380.254

Region: fluid Courant Number mean: 1296.16 max: 80530.2
Region: fins Diffusion Number mean: 120.796 max: 167602
Region: heater Diffusion Number mean: 73.7433 max: 540.957
Time = 43s


Solving for solid region fins
GAMG:  Solving for e, Initial residual = 0.138928, Final residual = 0.00399571, No Iterations 1
Min/max T:376.39 382.31

Solving for solid region heater
GAMG:  Solving for e, Initial residual = 0.0523362, Final residual = 1.33934e-05, No Iterations 1
Min/max T:381.456 400.302

Solving for fluid region fluid
DILUPBiCGStab:  Solving for Ux, Initial residual = 0.00133077, Final residual = 5.51741e-05, No Iterations 1
DILUPBiCGStab:  Solving for Uy, Initial residual = 0.00308069, Final residual = 0.000131353, No Iterations 1
DILUPBiCGStab:  Solving for Uz, Initial residual = 0.00230151, Final residual = 9.5515e-05, No Iterations 1
DILUPBiCGStab:  Solving for h, Initial residual = 0.00147175, Final residual = 8.35411e-05, No Iterations 1
Min/max T:296.677 381.587
GAMG:  Solving for p_rgh, Initial residual = 0.00425369, Final residual = 1.68155e-05, No Iterations 3
GAMG:  Solving for p_rgh, Initial residual = 0.000626375, Final residual = 2.92735e-06, No Iterations 3
GAMG:  Solving for p_rgh, Initial residual = 9.63812e-05, Final residual = 6.97579e-07, No Iterations 3
time step continuity errors : sum local = 4.29103e-06, global = -8.1578e-07, cumulative = -8.1578e-07
ExecutionTime = 12.23 s  ClockTime = 25 s

volFieldValue volAvgFinTemperature write:
    volAverage() of T = 379.959

volFieldValue volAvgHeaterTemperature write:
    volAverage() of T = 394.453

surfaceFieldValue averageTempHeaterFinInterface write:
    areaAverage(heater_to_fins) of T = 382.005

Region: fluid Courant Number mean: 1296.08 max: 80338.2
Region: fins Diffusion Number mean: 120.796 max: 167602
Region: heater Diffusion Number mean: 73.7433 max: 540.957
Time = 44s


Solving for solid region fins
GAMG:  Solving for e, Initial residual = 0.135671, Final residual = 0.00390587, No Iterations 1
Min/max T:378.05 384.05

Solving for solid region heater
GAMG:  Solving for e, Initial residual = 0.0519459, Final residual = 1.33197e-05, No Iterations 1
Min/max T:383.194 402.037

Solving for fluid region fluid
DILUPBiCGStab:  Solving for Ux, Initial residual = 0.00130475, Final residual = 5.39669e-05, No Iterations 1
DILUPBiCGStab:  Solving for Uy, Initial residual = 0.00302439, Final residual = 0.000128995, No Iterations 1
DILUPBiCGStab:  Solving for Uz, Initial residual = 0.00223747, Final residual = 9.2644e-05, No Iterations 1
DILUPBiCGStab:  Solving for h, Initial residual = 0.00142995, Final residual = 8.05067e-05, No Iterations 1
Min/max T:296.672 383.318
GAMG:  Solving for p_rgh, Initial residual = 0.00416747, Final residual = 1.6418e-05, No Iterations 3
GAMG:  Solving for p_rgh, Initial residual = 0.000611509, Final residual = 2.85487e-06, No Iterations 3
GAMG:  Solving for p_rgh, Initial residual = 9.45872e-05, Final residual = 6.85805e-07, No Iterations 3
time step continuity errors : sum local = 4.22344e-06, global = -8.00313e-07, cumulative = -8.00313e-07
ExecutionTime = 12.3937 s  ClockTime = 26 s

volFieldValue volAvgFinTemperature write:
    volAverage() of T = 381.653

volFieldValue volAvgHeaterTemperature write:
    volAverage() of T = 396.189

surfaceFieldValue averageTempHeaterFinInterface write:
    areaAverage(heater_to_fins) of T = 383.745

Region: fluid Courant Number mean: 1295.99 max: 80152.4
Region: fins Diffusion Number mean: 120.796 max: 167602
Region: heater Diffusion Number mean: 73.7433 max: 540.957
Time = 45s


Solving for solid region fins
GAMG:  Solving for e, Initial residual = 0.13254, Final residual = 0.00382388, No Iterations 1
Min/max T:379.698 385.779

Solving for solid region heater
GAMG:  Solving for e, Initial residual = 0.0515573, Final residual = 1.32585e-05, No Iterations 1
Min/max T:384.92 403.76

Solving for fluid region fluid
DILUPBiCGStab:  Solving for Ux, Initial residual = 0.00127917, Final residual = 5.27879e-05, No Iterations 1
DILUPBiCGStab:  Solving for Uy, Initial residual = 0.0029706, Final residual = 0.000126716, No Iterations 1
DILUPBiCGStab:  Solving for Uz, Initial residual = 0.00217593, Final residual = 8.98852e-05, No Iterations 1
DILUPBiCGStab:  Solving for h, Initial residual = 0.00139013, Final residual = 7.76533e-05, No Iterations 1
Min/max T:296.667 385.038
GAMG:  Solving for p_rgh, Initial residual = 0.00408624, Final residual = 1.59546e-05, No Iterations 3
GAMG:  Solving for p_rgh, Initial residual = 0.000599666, Final residual = 2.79983e-06, No Iterations 3
[...]
DILUPBiCGStab:  Solving for Ux, Initial residual = 6.84778e-08, Final residual = 6.84778e-08, No Iterations 0
DILUPBiCGStab:  Solving for Uy, Initial residual = 2.84769e-07, Final residual = 1.16491e-08, No Iterations 1
DILUPBiCGStab:  Solving for Uz, Initial residual = 1.35453e-07, Final residual = 5.50793e-09, No Iterations 1
DILUPBiCGStab:  Solving for h, Initial residual = 0.00031476, Final residual = 1.56006e-05, No Iterations 1
Min/max T:296.035 623.176
GAMG:  Solving for p_rgh, Initial residual = 3.76679e-07, Final residual = 1.96868e-08, No Iterations 1
GAMG:  Solving for p_rgh, Initial residual = 5.95659e-08, Final residual = 5.95659e-08, No Iterations 0
GAMG:  Solving for p_rgh, Initial residual = 5.95659e-08, Final residual = 5.95659e-08, No Iterations 0
time step continuity errors : sum local = 3.9649e-07, global = -2.40559e-10, cumulative = -2.40559e-10
ExecutionTime = 398.497 s  ClockTime = 751 s

volFieldValue volAvgFinTemperature write:
    volAverage() of T = 615.997

volFieldValue volAvgHeaterTemperature write:
    volAverage() of T = 636.4

surfaceFieldValue averageTempHeaterFinInterface write:
    areaAverage(heater_to_fins) of T = 624.557

Region: fluid Courant Number mean: 1289.37 max: 44132.4
Region: fins Diffusion Number mean: 120.796 max: 167602
Region: heater Diffusion Number mean: 73.7433 max: 540.957
Time = 1990s


Solving for solid region fins
GAMG:  Solving for e, Initial residual = 9.81842e-07, Final residual = 9.81842e-07, No Iterations 0
Min/max T:607.016 625.796

Solving for solid region heater
GAMG:  Solving for e, Initial residual = 4.06261e-07, Final residual = 4.06261e-07, No Iterations 0
Min/max T:621.946 642.298

Solving for fluid region fluid
DILUPBiCGStab:  Solving for Ux, Initial residual = 6.81714e-08, Final residual = 6.81714e-08, No Iterations 0
DILUPBiCGStab:  Solving for Uy, Initial residual = 2.83347e-07, Final residual = 1.15909e-08, No Iterations 1
DILUPBiCGStab:  Solving for Uz, Initial residual = 1.34766e-07, Final residual = 5.48061e-09, No Iterations 1
DILUPBiCGStab:  Solving for h, Initial residual = 0.00031476, Final residual = 1.56006e-05, No Iterations 1
Min/max T:296.035 623.176
GAMG:  Solving for p_rgh, Initial residual = 3.74862e-07, Final residual = 1.9602e-08, No Iterations 1
GAMG:  Solving for p_rgh, Initial residual = 5.93342e-08, Final residual = 5.93342e-08, No Iterations 0
GAMG:  Solving for p_rgh, Initial residual = 5.93342e-08, Final residual = 5.93342e-08, No Iterations 0
time step continuity errors : sum local = 3.94947e-07, global = -2.02722e-10, cumulative = -2.02722e-10
ExecutionTime = 398.6 s  ClockTime = 752 s

volFieldValue volAvgFinTemperature write:
    volAverage() of T = 615.997

volFieldValue volAvgHeaterTemperature write:
    volAverage() of T = 636.4

surfaceFieldValue averageTempHeaterFinInterface write:
    areaAverage(heater_to_fins) of T = 624.557

Region: fluid Courant Number mean: 1289.37 max: 44132.3
Region: fins Diffusion Number mean: 120.796 max: 167602
Region: heater Diffusion Number mean: 73.7433 max: 540.957
Time = 1991s


Solving for solid region fins
GAMG:  Solving for e, Initial residual = 9.82234e-07, Final residual = 9.82234e-07, No Iterations 0
Min/max T:607.016 625.796

Solving for solid region heater
GAMG:  Solving for e, Initial residual = 4.06261e-07, Final residual = 4.06261e-07, No Iterations 0
Min/max T:621.946 642.298

Solving for fluid region fluid
DILUPBiCGStab:  Solving for Ux, Initial residual = 6.78665e-08, Final residual = 6.78665e-08, No Iterations 0
DILUPBiCGStab:  Solving for Uy, Initial residual = 2.81915e-07, Final residual = 1.15324e-08, No Iterations 1
DILUPBiCGStab:  Solving for Uz, Initial residual = 1.34099e-07, Final residual = 5.45406e-09, No Iterations 1
DILUPBiCGStab:  Solving for h, Initial residual = 0.00031476, Final residual = 1.56006e-05, No Iterations 1
Min/max T:296.035 623.176
GAMG:  Solving for p_rgh, Initial residual = 3.731e-07, Final residual = 1.95081e-08, No Iterations 1
GAMG:  Solving for p_rgh, Initial residual = 5.90258e-08, Final residual = 5.90258e-08, No Iterations 0
GAMG:  Solving for p_rgh, Initial residual = 5.90258e-08, Final residual = 5.90258e-08, No Iterations 0
time step continuity errors : sum local = 3.92894e-07, global = -1.84301e-10, cumulative = -1.84301e-10
ExecutionTime = 398.684 s  ClockTime = 752 s

volFieldValue volAvgFinTemperature write:
    volAverage() of T = 615.997

volFieldValue volAvgHeaterTemperature write:
    volAverage() of T = 636.4

surfaceFieldValue averageTempHeaterFinInterface write:
    areaAverage(heater_to_fins) of T = 624.557

Region: fluid Courant Number mean: 1289.37 max: 44132.2
Region: fins Diffusion Number mean: 120.796 max: 167602
Region: heater Diffusion Number mean: 73.7433 max: 540.957
Time = 1992s


Solving for solid region fins
GAMG:  Solving for e, Initial residual = 9.82625e-07, Final residual = 9.82625e-07, No Iterations 0
Min/max T:607.016 625.796

Solving for solid region heater
GAMG:  Solving for e, Initial residual = 4.06261e-07, Final residual = 4.06261e-07, No Iterations 0
Min/max T:621.946 642.298

Solving for fluid region fluid
DILUPBiCGStab:  Solving for Ux, Initial residual = 6.75624e-08, Final residual = 6.75624e-08, No Iterations 0
DILUPBiCGStab:  Solving for Uy, Initial residual = 2.80539e-07, Final residual = 1.14763e-08, No Iterations 1
DILUPBiCGStab:  Solving for Uz, Initial residual = 1.33438e-07, Final residual = 5.42788e-09, No Iterations 1
DILUPBiCGStab:  Solving for h, Initial residual = 0.00031476, Final residual = 1.56006e-05, No Iterations 1
Min/max T:296.035 623.176
GAMG:  Solving for p_rgh, Initial residual = 3.71296e-07, Final residual = 1.94083e-08, No Iterations 1
GAMG:  Solving for p_rgh, Initial residual = 5.87712e-08, Final residual = 5.87712e-08, No Iterations 0
GAMG:  Solving for p_rgh, Initial residual = 5.87712e-08, Final residual = 5.87712e-08, No Iterations 0
time step continuity errors : sum local = 3.912e-07, global = -1.96077e-10, cumulative = -1.96077e-10
ExecutionTime = 398.761 s  ClockTime = 752 s

volFieldValue volAvgFinTemperature write:
    volAverage() of T = 615.997

volFieldValue volAvgHeaterTemperature write:
    volAverage() of T = 636.4

surfaceFieldValue averageTempHeaterFinInterface write:
    areaAverage(heater_to_fins) of T = 624.557

Region: fluid Courant Number mean: 1289.37 max: 44132
Region: fins Diffusion Number mean: 120.796 max: 167602
Region: heater Diffusion Number mean: 73.7433 max: 540.957
Time = 1993s


Solving for solid region fins
GAMG:  Solving for e, Initial residual = 9.83015e-07, Final residual = 9.83015e-07, No Iterations 0
Min/max T:607.016 625.796

Solving for solid region heater
GAMG:  Solving for e, Initial residual = 4.06261e-07, Final residual = 4.06261e-07, No Iterations 0
Min/max T:621.946 642.298

Solving for fluid region fluid
DILUPBiCGStab:  Solving for Ux, Initial residual = 6.72597e-08, Final residual = 6.72597e-08, No Iterations 0
DILUPBiCGStab:  Solving for Uy, Initial residual = 2.79144e-07, Final residual = 1.14197e-08, No Iterations 1
DILUPBiCGStab:  Solving for Uz, Initial residual = 1.32793e-07, Final residual = 5.40226e-09, No Iterations 1
DILUPBiCGStab:  Solving for h, Initial residual = 0.00031476, Final residual = 1.56006e-05, No Iterations 1
Min/max T:296.035 623.176
GAMG:  Solving for p_rgh, Initial residual = 3.69526e-07, Final residual = 1.93054e-08, No Iterations 1
GAMG:  Solving for p_rgh, Initial residual = 5.84424e-08, Final residual = 5.84424e-08, No Iterations 0
GAMG:  Solving for p_rgh, Initial residual = 5.84424e-08, Final residual = 5.84424e-08, No Iterations 0
time step continuity errors : sum local = 3.89012e-07, global = -2.38888e-10, cumulative = -2.38888e-10
ExecutionTime = 398.847 s  ClockTime = 752 s

volFieldValue volAvgFinTemperature write:
    volAverage() of T = 615.997

volFieldValue volAvgHeaterTemperature write:
    volAverage() of T = 636.4

surfaceFieldValue averageTempHeaterFinInterface write:
    areaAverage(heater_to_fins) of T = 624.557

Region: fluid Courant Number mean: 1289.37 max: 44131.9
Region: fins Diffusion Number mean: 120.796 max: 167602
Region: heater Diffusion Number mean: 73.7433 max: 540.957
Time = 1994s


Solving for solid region fins
GAMG:  Solving for e, Initial residual = 9.83404e-07, Final residual = 9.83404e-07, No Iterations 0
Min/max T:607.016 625.796

Solving for solid region heater
GAMG:  Solving for e, Initial residual = 4.06261e-07, Final residual = 4.06261e-07, No Iterations 0
Min/max T:621.946 642.298

Solving for fluid region fluid
DILUPBiCGStab:  Solving for Ux, Initial residual = 6.69578e-08, Final residual = 6.69578e-08, No Iterations 0
DILUPBiCGStab:  Solving for Uy, Initial residual = 2.77799e-07, Final residual = 1.13653e-08, No Iterations 1
DILUPBiCGStab:  Solving for Uz, Initial residual = 1.32149e-07, Final residual = 5.37681e-09, No Iterations 1
DILUPBiCGStab:  Solving for h, Initial residual = 0.00031476, Final residual = 1.56006e-05, No Iterations 1
Min/max T:296.035 623.176
GAMG:  Solving for p_rgh, Initial residual = 3.677e-07, Final residual = 1.92013e-08, No Iterations 1
GAMG:  Solving for p_rgh, Initial residual = 5.8178e-08, Final residual = 5.8178e-08, No Iterations 0
GAMG:  Solving for p_rgh, Initial residual = 5.8178e-08, Final residual = 5.8178e-08, No Iterations 0
time step continuity errors : sum local = 3.87251e-07, global = -3.04307e-10, cumulative = -3.04307e-10
ExecutionTime = 398.918 s  ClockTime = 752 s

volFieldValue volAvgFinTemperature write:
    volAverage() of T = 615.997

volFieldValue volAvgHeaterTemperature write:
    volAverage() of T = 636.4

surfaceFieldValue averageTempHeaterFinInterface write:
    areaAverage(heater_to_fins) of T = 624.557

Region: fluid Courant Number mean: 1289.37 max: 44131.8
Region: fins Diffusion Number mean: 120.796 max: 167602
Region: heater Diffusion Number mean: 73.7433 max: 540.957
Time = 1995s


Solving for solid region fins
GAMG:  Solving for e, Initial residual = 9.83792e-07, Final residual = 9.83792e-07, No Iterations 0
Min/max T:607.016 625.796

Solving for solid region heater
GAMG:  Solving for e, Initial residual = 4.06261e-07, Final residual = 4.06261e-07, No Iterations 0
Min/max T:621.946 642.298

Solving for fluid region fluid
DILUPBiCGStab:  Solving for Ux, Initial residual = 6.66575e-08, Final residual = 6.66575e-08, No Iterations 0
DILUPBiCGStab:  Solving for Uy, Initial residual = 2.76431e-07, Final residual = 1.13102e-08, No Iterations 1
DILUPBiCGStab:  Solving for Uz, Initial residual = 1.31516e-07, Final residual = 5.35176e-09, No Iterations 1
DILUPBiCGStab:  Solving for h, Initial residual = 0.00031476, Final residual = 1.56006e-05, No Iterations 1
Min/max T:296.035 623.176
GAMG:  Solving for p_rgh, Initial residual = 3.65908e-07, Final residual = 1.90984e-08, No Iterations 1
GAMG:  Solving for p_rgh, Initial residual = 5.78492e-08, Final residual = 5.78492e-08, No Iterations 0
GAMG:  Solving for p_rgh, Initial residual = 5.78492e-08, Final residual = 5.78492e-08, No Iterations 0
time step continuity errors : sum local = 3.85063e-07, global = -3.78269e-10, cumulative = -3.78269e-10
ExecutionTime = 398.985 s  ClockTime = 753 s

volFieldValue volAvgFinTemperature write:
    volAverage() of T = 615.997

volFieldValue volAvgHeaterTemperature write:
    volAverage() of T = 636.4

surfaceFieldValue averageTempHeaterFinInterface write:
    areaAverage(heater_to_fins) of T = 624.557

Region: fluid Courant Number mean: 1289.37 max: 44131.7
Region: fins Diffusion Number mean: 120.796 max: 167602
Region: heater Diffusion Number mean: 73.7433 max: 540.957
Time = 1996s


Solving for solid region fins
GAMG:  Solving for e, Initial residual = 9.8418e-07, Final residual = 9.8418e-07, No Iterations 0
Min/max T:607.016 625.796

Solving for solid region heater
GAMG:  Solving for e, Initial residual = 4.06261e-07, Final residual = 4.06261e-07, No Iterations 0
Min/max T:621.946 642.298

Solving for fluid region fluid
DILUPBiCGStab:  Solving for Ux, Initial residual = 6.63582e-08, Final residual = 6.63582e-08, No Iterations 0
DILUPBiCGStab:  Solving for Uy, Initial residual = 2.75111e-07, Final residual = 1.12571e-08, No Iterations 1
DILUPBiCGStab:  Solving for Uz, Initial residual = 1.30884e-07, Final residual = 5.32674e-09, No Iterations 1
DILUPBiCGStab:  Solving for h, Initial residual = 0.00031476, Final residual = 1.56006e-05, No Iterations 1
Min/max T:296.035 623.176
GAMG:  Solving for p_rgh, Initial residual = 3.64074e-07, Final residual = 1.89981e-08, No Iterations 1
GAMG:  Solving for p_rgh, Initial residual = 5.75914e-08, Final residual = 5.75914e-08, No Iterations 0
GAMG:  Solving for p_rgh, Initial residual = 5.75914e-08, Final residual = 5.75914e-08, No Iterations 0
time step continuity errors : sum local = 3.83347e-07, global = -4.46999e-10, cumulative = -4.46999e-10
ExecutionTime = 399.054 s  ClockTime = 753 s

volFieldValue volAvgFinTemperature write:
    volAverage() of T = 615.997

volFieldValue volAvgHeaterTemperature write:
    volAverage() of T = 636.4

surfaceFieldValue averageTempHeaterFinInterface write:
    areaAverage(heater_to_fins) of T = 624.557

Region: fluid Courant Number mean: 1289.37 max: 44131.6
Region: fins Diffusion Number mean: 120.796 max: 167602
Region: heater Diffusion Number mean: 73.7433 max: 540.957
Time = 1997s


Solving for solid region fins
GAMG:  Solving for e, Initial residual = 9.84567e-07, Final residual = 9.84567e-07, No Iterations 0
Min/max T:607.016 625.796

Solving for solid region heater
GAMG:  Solving for e, Initial residual = 4.06261e-07, Final residual = 4.06261e-07, No Iterations 0
Min/max T:621.946 642.298

Solving for fluid region fluid
DILUPBiCGStab:  Solving for Ux, Initial residual = 6.60608e-08, Final residual = 6.60608e-08, No Iterations 0
DILUPBiCGStab:  Solving for Uy, Initial residual = 2.73766e-07, Final residual = 1.12034e-08, No Iterations 1
DILUPBiCGStab:  Solving for Uz, Initial residual = 1.30261e-07, Final residual = 5.30204e-09, No Iterations 1
DILUPBiCGStab:  Solving for h, Initial residual = 0.00031476, Final residual = 1.56006e-05, No Iterations 1
Min/max T:296.035 623.176
GAMG:  Solving for p_rgh, Initial residual = 3.6229e-07, Final residual = 1.89012e-08, No Iterations 1
GAMG:  Solving for p_rgh, Initial residual = 5.7275e-08, Final residual = 5.7275e-08, No Iterations 0
GAMG:  Solving for p_rgh, Initial residual = 5.7275e-08, Final residual = 5.7275e-08, No Iterations 0
time step continuity errors : sum local = 3.81241e-07, global = -5.0117e-10, cumulative = -5.0117e-10
ExecutionTime = 399.118 s  ClockTime = 753 s

volFieldValue volAvgFinTemperature write:
    volAverage() of T = 615.997

volFieldValue volAvgHeaterTemperature write:
    volAverage() of T = 636.4

surfaceFieldValue averageTempHeaterFinInterface write:
    areaAverage(heater_to_fins) of T = 624.557

Region: fluid Courant Number mean: 1289.37 max: 44131.5
Region: fins Diffusion Number mean: 120.796 max: 167602
Region: heater Diffusion Number mean: 73.7433 max: 540.957
Time = 1998s


Solving for solid region fins
GAMG:  Solving for e, Initial residual = 9.84952e-07, Final residual = 9.84952e-07, No Iterations 0
Min/max T:607.016 625.796

Solving for solid region heater
GAMG:  Solving for e, Initial residual = 4.06261e-07, Final residual = 4.06261e-07, No Iterations 0
Min/max T:621.946 642.298

Solving for fluid region fluid
DILUPBiCGStab:  Solving for Ux, Initial residual = 6.57645e-08, Final residual = 6.57645e-08, No Iterations 0
DILUPBiCGStab:  Solving for Uy, Initial residual = 2.72468e-07, Final residual = 1.11516e-08, No Iterations 1
DILUPBiCGStab:  Solving for Uz, Initial residual = 1.29639e-07, Final residual = 5.27738e-09, No Iterations 1
DILUPBiCGStab:  Solving for h, Initial residual = 0.00031476, Final residual = 1.56006e-05, No Iterations 1
Min/max T:296.035 623.176
GAMG:  Solving for p_rgh, Initial residual = 3.60476e-07, Final residual = 1.8808e-08, No Iterations 1
GAMG:  Solving for p_rgh, Initial residual = 5.70295e-08, Final residual = 5.70295e-08, No Iterations 0
GAMG:  Solving for p_rgh, Initial residual = 5.70295e-08, Final residual = 5.70295e-08, No Iterations 0
time step continuity errors : sum local = 3.79607e-07, global = -5.37875e-10, cumulative = -5.37875e-10
ExecutionTime = 399.184 s  ClockTime = 753 s

volFieldValue volAvgFinTemperature write:
    volAverage() of T = 615.997

volFieldValue volAvgHeaterTemperature write:
    volAverage() of T = 636.4

surfaceFieldValue averageTempHeaterFinInterface write:
    areaAverage(heater_to_fins) of T = 624.557

Region: fluid Courant Number mean: 1289.37 max: 44131.3
Region: fins Diffusion Number mean: 120.796 max: 167602
Region: heater Diffusion Number mean: 73.7433 max: 540.957
Time = 1999s


Solving for solid region fins
GAMG:  Solving for e, Initial residual = 9.85336e-07, Final residual = 9.85336e-07, No Iterations 0
Min/max T:607.016 625.796

Solving for solid region heater
GAMG:  Solving for e, Initial residual = 4.06261e-07, Final residual = 4.06261e-07, No Iterations 0
Min/max T:621.946 642.298

Solving for fluid region fluid
DILUPBiCGStab:  Solving for Ux, Initial residual = 6.54701e-08, Final residual = 6.54701e-08, No Iterations 0
DILUPBiCGStab:  Solving for Uy, Initial residual = 2.71146e-07, Final residual = 1.1099e-08, No Iterations 1
DILUPBiCGStab:  Solving for Uz, Initial residual = 1.29028e-07, Final residual = 5.25308e-09, No Iterations 1
DILUPBiCGStab:  Solving for h, Initial residual = 0.00031476, Final residual = 1.56006e-05, No Iterations 1
Min/max T:296.035 623.176
GAMG:  Solving for p_rgh, Initial residual = 3.5872e-07, Final residual = 1.8717e-08, No Iterations 1
GAMG:  Solving for p_rgh, Initial residual = 5.67244e-08, Final residual = 5.67244e-08, No Iterations 0
GAMG:  Solving for p_rgh, Initial residual = 5.67244e-08, Final residual = 5.67244e-08, No Iterations 0
time step continuity errors : sum local = 3.77576e-07, global = -5.59492e-10, cumulative = -5.59492e-10
ExecutionTime = 399.282 s  ClockTime = 753 s

volFieldValue volAvgFinTemperature write:
    volAverage() of T = 615.997

volFieldValue volAvgHeaterTemperature write:
    volAverage() of T = 636.4

surfaceFieldValue averageTempHeaterFinInterface write:
    areaAverage(heater_to_fins) of T = 624.557

Region: fluid Courant Number mean: 1289.37 max: 44131.2
Region: fins Diffusion Number mean: 120.796 max: 167602
Region: heater Diffusion Number mean: 73.7433 max: 540.957
Time = 2000s


Solving for solid region fins
GAMG:  Solving for e, Initial residual = 9.8572e-07, Final residual = 9.8572e-07, No Iterations 0
Min/max T:607.016 625.796

Solving for solid region heater
GAMG:  Solving for e, Initial residual = 4.06261e-07, Final residual = 4.06261e-07, No Iterations 0
Min/max T:621.946 642.298

Solving for fluid region fluid
DILUPBiCGStab:  Solving for Ux, Initial residual = 6.51768e-08, Final residual = 6.51768e-08, No Iterations 0
DILUPBiCGStab:  Solving for Uy, Initial residual = 2.69872e-07, Final residual = 1.10484e-08, No Iterations 1
DILUPBiCGStab:  Solving for Uz, Initial residual = 1.28418e-07, Final residual = 5.22886e-09, No Iterations 1
DILUPBiCGStab:  Solving for h, Initial residual = 0.00031476, Final residual = 1.56006e-05, No Iterations 1
Min/max T:296.035 623.176
GAMG:  Solving for p_rgh, Initial residual = 3.5694e-07, Final residual = 1.8627e-08, No Iterations 1
GAMG:  Solving for p_rgh, Initial residual = 5.64864e-08, Final residual = 5.64864e-08, No Iterations 0
GAMG:  Solving for p_rgh, Initial residual = 5.64864e-08, Final residual = 5.64864e-08, No Iterations 0
time step continuity errors : sum local = 3.75992e-07, global = -5.71229e-10, cumulative = -5.71229e-10
ExecutionTime = 399.492 s  ClockTime = 754 s

volFieldValue volAvgFinTemperature write:
    volAverage() of T = 615.997

volFieldValue volAvgHeaterTemperature write:
    volAverage() of T = 636.4

surfaceFieldValue averageTempHeaterFinInterface write:
    areaAverage(heater_to_fins) of T = 624.557

End

