/*---------------------------------------------------------------------------*\
  =========                 |
  \\      /  F ield         | OpenFOAM: The Open Source CFD Toolbox
   \\    /   O peration     | Website:  https://openfoam.org
    \\  /    A nd           | Version:  10
     \\/     M anipulation  |
\*---------------------------------------------------------------------------*/
Build  : 10-c4cf895ad8fa
Exec   : chtMultiRegionFoam
Date   : Nov 01 2023
Time   : 09:05:21
Host   : "alexesn"
PID    : 7559
I/O    : uncollated
Case   : /mnt/c/Users/sasch/OneDrive/Desktop/MEPhI/Project_practice/FOAM_project/heatExchanger/all_auto/case_20_20
nProcs : 1
sigFpe : Enabling floating point exception trapping (FOAM_SIGFPE).
fileModificationChecking : Monitoring run-time modified files using timeStampMaster (fileModificationSkew 10)
allowSystemOperations : Allowing user-supplied system call operations

// * * * * * * * * * * * * * * * * * * * * * * * * * * * * * * * * * * * * * //
Create time

Create fluid mesh for region fluid for time = 0

Create solid mesh for region fins for time = 0

Create solid mesh for region heater for time = 0


PIMPLE: Region fluid
PIMPLE: No convergence criteria found


PIMPLE: Region fins
PIMPLE: No convergence criteria found


PIMPLE: Region heater
PIMPLE: No convergence criteria found


PIMPLE: Operating solver in steady-state mode with 1 outer corrector
PIMPLE: Operating solver in SIMPLE mode


*** Reading fluid mesh thermophysical properties for region fluid

    Adding to thermoFluid

Selecting thermodynamics package 
{
    type            heRhoThermo;
    mixture         pureMixture;
    transport       const;
    thermo          hConst;
    equationOfState rhoConst;
    specie          specie;
    energy          sensibleEnthalpy;
}

    Adding to rhoFluid

    Adding to UFluid

    Adding to phiFluid

    Adding to gFluid

    Adding to hRefFluid

    Adding to pRefFluid

    Adding to ghFluid

    Adding to ghfFluid

    Adding to turbulenceFluid

Selecting turbulence model type laminar
Selecting laminar stress model Stokes
    Adding to thermophysicalTransport

Selecting thermophysical transport type laminar
Selecting default laminar thermophysical transport model unityLewisFourier
    Adding to reactionFluid

Combustion model not active: combustionProperties not found
Selecting combustion model none
    Adding to KFluid

    Adding to dpdtFluid

    Adding to fieldsFluid

    Adding MRF

No MRF models present

    Adding fvModelsFluid

    Adding fvConstraintsFluid

Creating fvConstraints from "system/fvConstraints"

Selecting finite volume constraint type limitTemperature
    Name: limitT
    - selecting all cells
    - selected 11420 cell(s) with volume 0.00149667
*** Reading solid mesh thermophysical properties for region fins

    Adding to thermoSolid

Selecting thermodynamics package 
{
    type            heSolidThermo;
    mixture         pureMixture;
    transport       constIsoSolid;
    thermo          eConst;
    equationOfState rhoConst;
    specie          specie;
    energy          sensibleInternalEnergy;
}

    Adding to fvModelsSolid

    Adding fvConstraintsSolid

*** Reading solid mesh thermophysical properties for region heater

    Adding to thermoSolid

Selecting thermodynamics package 
{
    type            heSolidThermo;
    mixture         pureMixture;
    transport       constIsoSolid;
    thermo          eConst;
    equationOfState rhoConst;
    specie          specie;
    energy          sensibleInternalEnergy;
}

    Adding to fvModelsSolid

Creating fvModels from "constant/fvModels"

Selecting finite volume model type heatSource
    Name: energySource
    - selecting all cells
    - selected 593 cell(s) with volume 1e-06
    Adding fvConstraintsSolid

Region: fluid Courant Number mean: 1316.13 max: 211119
Region: fins Diffusion Number mean: 134.776 max: 167602
Region: heater Diffusion Number mean: 69.8575 max: 522.236








surfaceFieldValue averageTempHeaterFinInterface:
    total faces  = 56
    total area   = 0.0001


volFieldValue volAvgFinTemperature write:
    volAverage() of T = 296.9

volFieldValue volAvgHeaterTemperature write:
    volAverage() of T = 296.9

surfaceFieldValue averageTempHeaterFinInterface write:
    areaAverage(heater_to_fins) of T = 296.9

Region: fluid Courant Number mean: 1316.13 max: 211119
Region: fins Diffusion Number mean: 134.776 max: 167602
Region: heater Diffusion Number mean: 69.8575 max: 522.236
Time = 1s


Solving for solid region fins
GAMG:  Solving for e, Initial residual = 0.983823, Final residual = 0.0421282, No Iterations 1
Min/max T:296.9 296.9

Solving for solid region heater
GAMG:  Solving for e, Initial residual = 1, Final residual = 0.0720723, No Iterations 3
Min/max T:296.9 313.618

Solving for fluid region fluid
DILUPBiCGStab:  Solving for Ux, Initial residual = 1, Final residual = 0.0254733, No Iterations 1
DILUPBiCGStab:  Solving for Uy, Initial residual = 1, Final residual = 0.0290356, No Iterations 1
DILUPBiCGStab:  Solving for Uz, Initial residual = 1, Final residual = 0.0295579, No Iterations 1
DILUPBiCGStab:  Solving for h, Initial residual = 1, Final residual = 0.0684762, No Iterations 1
Min/max T:295.436 297.758
GAMG:  Solving for p_rgh, Initial residual = 1, Final residual = 0.00415008, No Iterations 8
GAMG:  Solving for p_rgh, Initial residual = 0.512309, Final residual = 0.00322084, No Iterations 2
GAMG:  Solving for p_rgh, Initial residual = 0.0429494, Final residual = 0.000187419, No Iterations 3
time step continuity errors : sum local = 0.00967382, global = -0.000292364, cumulative = -0.000292364
ExecutionTime = 5.55481 s  ClockTime = 12 s

volFieldValue volAvgFinTemperature write:
    volAverage() of T = 296.9

volFieldValue volAvgHeaterTemperature write:
    volAverage() of T = 308.237

surfaceFieldValue averageTempHeaterFinInterface write:
    areaAverage(heater_to_fins) of T = 296.9

Region: fluid Courant Number mean: 1316.24 max: 136944
Region: fins Diffusion Number mean: 134.776 max: 167602
Region: heater Diffusion Number mean: 69.8575 max: 522.236
Time = 2s


Solving for solid region fins
GAMG:  Solving for e, Initial residual = 1, Final residual = 0.0377483, No Iterations 1
Min/max T:296.899 299.691

Solving for solid region heater
GAMG:  Solving for e, Initial residual = 0.259007, Final residual = 0.00735606, No Iterations 1
Min/max T:298.733 316.145

Solving for fluid region fluid
DILUPBiCGStab:  Solving for Ux, Initial residual = 0.192069, Final residual = 0.00832578, No Iterations 1
DILUPBiCGStab:  Solving for Uy, Initial residual = 0.30942, Final residual = 0.0133602, No Iterations 1
DILUPBiCGStab:  Solving for Uz, Initial residual = 0.418063, Final residual = 0.0179455, No Iterations 1
DILUPBiCGStab:  Solving for h, Initial residual = 0.116584, Final residual = 0.00922874, No Iterations 1
Min/max T:294.68 299.362
GAMG:  Solving for p_rgh, Initial residual = 0.237398, Final residual = 0.00180376, No Iterations 6
GAMG:  Solving for p_rgh, Initial residual = 0.77128, Final residual = 0.00506694, No Iterations 2
GAMG:  Solving for p_rgh, Initial residual = 0.139456, Final residual = 0.000950219, No Iterations 3
time step continuity errors : sum local = 0.0270276, global = 0.00768644, cumulative = 0.00768644
ExecutionTime = 5.77176 s  ClockTime = 12 s

volFieldValue volAvgFinTemperature write:
    volAverage() of T = 299.209

volFieldValue volAvgHeaterTemperature write:
    volAverage() of T = 310.815

surfaceFieldValue averageTempHeaterFinInterface write:
    areaAverage(heater_to_fins) of T = 299.305

Region: fluid Courant Number mean: 1316.15 max: 138674
Region: fins Diffusion Number mean: 134.776 max: 167602
Region: heater Diffusion Number mean: 69.8575 max: 522.236
Time = 3s


Solving for solid region fins
GAMG:  Solving for e, Initial residual = 0.523052, Final residual = 0.0129048, No Iterations 1
Min/max T:299.111 301.961

Solving for solid region heater
GAMG:  Solving for e, Initial residual = 0.0934662, Final residual = 0.00397228, No Iterations 1
Min/max T:301.107 318.979

Solving for fluid region fluid
DILUPBiCGStab:  Solving for Ux, Initial residual = 0.0817903, Final residual = 0.00354303, No Iterations 1
DILUPBiCGStab:  Solving for Uy, Initial residual = 0.224558, Final residual = 0.00959832, No Iterations 1
DILUPBiCGStab:  Solving for Uz, Initial residual = 0.329606, Final residual = 0.0140981, No Iterations 1
DILUPBiCGStab:  Solving for h, Initial residual = 0.0716707, Final residual = 0.00553933, No Iterations 1
Min/max T:296.546 301.695
GAMG:  Solving for p_rgh, Initial residual = 0.225834, Final residual = 0.00151064, No Iterations 6
GAMG:  Solving for p_rgh, Initial residual = 0.786603, Final residual = 0.00540725, No Iterations 2
GAMG:  Solving for p_rgh, Initial residual = 0.140875, Final residual = 0.000942022, No Iterations 3
time step continuity errors : sum local = 0.010809, global = -0.00309492, cumulative = -0.00309492
ExecutionTime = 5.95745 s  ClockTime = 12 s

volFieldValue volAvgFinTemperature write:
    volAverage() of T = 301.479

volFieldValue volAvgHeaterTemperature write:
    volAverage() of T = 313.499

surfaceFieldValue averageTempHeaterFinInterface write:
    areaAverage(heater_to_fins) of T = 301.649

Region: fluid Courant Number mean: 1315.52 max: 182754
Region: fins Diffusion Number mean: 134.776 max: 167602
Region: heater Diffusion Number mean: 69.8575 max: 522.236
Time = 4s


Solving for solid region fins
GAMG:  Solving for e, Initial residual = 0.463825, Final residual = 0.0120876, No Iterations 1
Min/max T:301.434 304.325

Solving for solid region heater
GAMG:  Solving for e, Initial residual = 0.0808987, Final residual = 0.00240764, No Iterations 1
Min/max T:303.452 321.649

Solving for fluid region fluid
DILUPBiCGStab:  Solving for Ux, Initial residual = 0.0334868, Final residual = 0.00145887, No Iterations 1
DILUPBiCGStab:  Solving for Uy, Initial residual = 0.0763738, Final residual = 0.00325576, No Iterations 1
DILUPBiCGStab:  Solving for Uz, Initial residual = 0.10023, Final residual = 0.00431687, No Iterations 1
DILUPBiCGStab:  Solving for h, Initial residual = 0.0232458, Final residual = 0.0019935, No Iterations 1
Min/max T:296.697 304.073
GAMG:  Solving for p_rgh, Initial residual = 0.190749, Final residual = 0.00130367, No Iterations 6
GAMG:  Solving for p_rgh, Initial residual = 0.514342, Final residual = 0.00356679, No Iterations 2
GAMG:  Solving for p_rgh, Initial residual = 0.077475, Final residual = 0.000493928, No Iterations 3
time step continuity errors : sum local = 0.00419289, global = 0.00111355, cumulative = 0.00111355
ExecutionTime = 6.13127 s  ClockTime = 13 s

volFieldValue volAvgFinTemperature write:
    volAverage() of T = 303.765

volFieldValue volAvgHeaterTemperature write:
    volAverage() of T = 316.05

surfaceFieldValue averageTempHeaterFinInterface write:
    areaAverage(heater_to_fins) of T = 304.011

Region: fluid Courant Number mean: 1315.34 max: 130319
Region: fins Diffusion Number mean: 134.776 max: 167602
Region: heater Diffusion Number mean: 69.8575 max: 522.236
Time = 5s


Solving for solid region fins
GAMG:  Solving for e, Initial residual = 0.433088, Final residual = 0.0122169, No Iterations 1
Min/max T:303.687 306.678

Solving for solid region heater
GAMG:  Solving for e, Initial residual = 0.0758447, Final residual = 0.0014939, No Iterations 1
Min/max T:305.806 324.2

Solving for fluid region fluid
DILUPBiCGStab:  Solving for Ux, Initial residual = 0.0137925, Final residual = 0.000589088, No Iterations 1
DILUPBiCGStab:  Solving for Uy, Initial residual = 0.0401971, Final residual = 0.00165968, No Iterations 1
DILUPBiCGStab:  Solving for Uz, Initial residual = 0.0474715, Final residual = 0.00204001, No Iterations 1
DILUPBiCGStab:  Solving for h, Initial residual = 0.0130083, Final residual = 0.00115058, No Iterations 1
Min/max T:296.807 306.442
GAMG:  Solving for p_rgh, Initial residual = 0.137874, Final residual = 0.00137343, No Iterations 5
GAMG:  Solving for p_rgh, Initial residual = 0.328736, Final residual = 0.00223799, No Iterations 2
GAMG:  Solving for p_rgh, Initial residual = 0.0459522, Final residual = 0.000329683, No Iterations 3
time step continuity errors : sum local = 0.00197913, global = -0.00048054, cumulative = -0.00048054
ExecutionTime = 6.31102 s  ClockTime = 13 s

volFieldValue volAvgFinTemperature write:
    volAverage() of T = 306.045

volFieldValue volAvgHeaterTemperature write:
    volAverage() of T = 318.523

surfaceFieldValue averageTempHeaterFinInterface write:
    areaAverage(heater_to_fins) of T = 306.373

Region: fluid Courant Number mean: 1315.03 max: 131653
Region: fins Diffusion Number mean: 134.776 max: 167602
Region: heater Diffusion Number mean: 69.8575 max: 522.236
Time = 6s


Solving for solid region fins
GAMG:  Solving for e, Initial residual = 0.408233, Final residual = 0.0119368, No Iterations 1
Min/max T:305.928 309.037

Solving for solid region heater
GAMG:  Solving for e, Initial residual = 0.0732553, Final residual = 0.000931642, No Iterations 1
Min/max T:308.157 326.669

Solving for fluid region fluid
DILUPBiCGStab:  Solving for Ux, Initial residual = 0.00698607, Final residual = 0.000305759, No Iterations 1
DILUPBiCGStab:  Solving for Uy, Initial residual = 0.0179188, Final residual = 0.000742615, No Iterations 1
DILUPBiCGStab:  Solving for Uz, Initial residual = 0.0215716, Final residual = 0.000944319, No Iterations 1
DILUPBiCGStab:  Solving for h, Initial residual = 0.00912123, Final residual = 0.000745436, No Iterations 1
Min/max T:296.831 308.798
GAMG:  Solving for p_rgh, Initial residual = 0.0858585, Final residual = 0.000731087, No Iterations 5
GAMG:  Solving for p_rgh, Initial residual = 0.134973, Final residual = 0.000886621, No Iterations 2
GAMG:  Solving for p_rgh, Initial residual = 0.0173865, Final residual = 8.96886e-05, No Iterations 3
time step continuity errors : sum local = 0.000568237, global = 0.00013205, cumulative = 0.00013205
ExecutionTime = 6.49418 s  ClockTime = 13 s

volFieldValue volAvgFinTemperature write:
    volAverage() of T = 308.314

volFieldValue volAvgHeaterTemperature write:
    volAverage() of T = 320.942

surfaceFieldValue averageTempHeaterFinInterface write:
    areaAverage(heater_to_fins) of T = 308.726

Region: fluid Courant Number mean: 1314.81 max: 125948
Region: fins Diffusion Number mean: 134.776 max: 167602
Region: heater Diffusion Number mean: 69.8575 max: 522.236
Time = 7s


Solving for solid region fins
GAMG:  Solving for e, Initial residual = 0.385784, Final residual = 0.0115507, No Iterations 1
Min/max T:308.156 311.379

Solving for solid region heater
GAMG:  Solving for e, Initial residual = 0.0714109, Final residual = 0.000582482, No Iterations 1
Min/max T:310.5 329.08

Solving for fluid region fluid
DILUPBiCGStab:  Solving for Ux, Initial residual = 0.00333109, Final residual = 0.000131037, No Iterations 1
DILUPBiCGStab:  Solving for Uy, Initial residual = 0.0110793, Final residual = 0.000393676, No Iterations 1
DILUPBiCGStab:  Solving for Uz, Initial residual = 0.0119272, Final residual = 0.000486151, No Iterations 1
DILUPBiCGStab:  Solving for h, Initial residual = 0.00709013, Final residual = 0.000534783, No Iterations 1
Min/max T:296.866 311.14
GAMG:  Solving for p_rgh, Initial residual = 0.0503234, Final residual = 0.000307496, No Iterations 5
GAMG:  Solving for p_rgh, Initial residual = 0.0618287, Final residual = 0.000430453, No Iterations 2
GAMG:  Solving for p_rgh, Initial residual = 0.00787314, Final residual = 3.73034e-05, No Iterations 3
time step continuity errors : sum local = 0.000222648, global = 4.92246e-05, cumulative = 4.92246e-05
ExecutionTime = 6.65509 s  ClockTime = 14 s

volFieldValue volAvgFinTemperature write:
    volAverage() of T = 310.57

volFieldValue volAvgHeaterTemperature write:
    volAverage() of T = 323.322

surfaceFieldValue averageTempHeaterFinInterface write:
    areaAverage(heater_to_fins) of T = 311.066

Region: fluid Courant Number mean: 1314.59 max: 125012
Region: fins Diffusion Number mean: 134.776 max: 167602
Region: heater Diffusion Number mean: 69.8575 max: 522.236
Time = 8s


Solving for solid region fins
GAMG:  Solving for e, Initial residual = 0.364869, Final residual = 0.0110748, No Iterations 1
Min/max T:310.369 313.71

Solving for solid region heater
GAMG:  Solving for e, Initial residual = 0.0700709, Final residual = 0.000364559, No Iterations 1
Min/max T:312.83 331.448

Solving for fluid region fluid
DILUPBiCGStab:  Solving for Ux, Initial residual = 0.0029495, Final residual = 0.000130609, No Iterations 1
DILUPBiCGStab:  Solving for Uy, Initial residual = 0.00844416, Final residual = 0.000320918, No Iterations 1
DILUPBiCGStab:  Solving for Uz, Initial residual = 0.0095802, Final residual = 0.000404779, No Iterations 1
DILUPBiCGStab:  Solving for h, Initial residual = 0.00576266, Final residual = 0.000411516, No Iterations 1
Min/max T:296.887 313.465
GAMG:  Solving for p_rgh, Initial residual = 0.0355553, Final residual = 0.000334268, No Iterations 4
GAMG:  Solving for p_rgh, Initial residual = 0.0236336, Final residual = 0.000142393, No Iterations 2
GAMG:  Solving for p_rgh, Initial residual = 0.0030435, Final residual = 1.45651e-05, No Iterations 4
time step continuity errors : sum local = 8.95219e-05, global = -2.51216e-05, cumulative = -2.51216e-05
ExecutionTime = 6.82045 s  ClockTime = 14 s

volFieldValue volAvgFinTemperature write:
    volAverage() of T = 312.81

volFieldValue volAvgHeaterTemperature write:
    volAverage() of T = 325.669

surfaceFieldValue averageTempHeaterFinInterface write:
    areaAverage(heater_to_fins) of T = 313.391

Region: fluid Courant Number mean: 1314.37 max: 122119
Region: fins Diffusion Number mean: 134.776 max: 167602
Region: heater Diffusion Number mean: 69.8575 max: 522.236
Time = 9s


Solving for solid region fins
GAMG:  Solving for e, Initial residual = 0.345431, Final residual = 0.0105742, No Iterations 1
Min/max T:312.565 316.026

Solving for solid region heater
GAMG:  Solving for e, Initial residual = 0.0690223, Final residual = 0.000228399, No Iterations 1
Min/max T:315.145 333.782

Solving for fluid region fluid
DILUPBiCGStab:  Solving for Ux, Initial residual = 0.00241017, Final residual = 0.000105161, No Iterations 1
DILUPBiCGStab:  Solving for Uy, Initial residual = 0.00673909, Final residual = 0.000245983, No Iterations 1
DILUPBiCGStab:  Solving for Uz, Initial residual = 0.00769069, Final residual = 0.000323632, No Iterations 1
DILUPBiCGStab:  Solving for h, Initial residual = 0.00490461, Final residual = 0.000342397, No Iterations 1
Min/max T:296.885 315.774
GAMG:  Solving for p_rgh, Initial residual = 0.0279824, Final residual = 0.000165418, No Iterations 4
GAMG:  Solving for p_rgh, Initial residual = 0.0116551, Final residual = 9.48318e-05, No Iterations 2
GAMG:  Solving for p_rgh, Initial residual = 0.00154121, Final residual = 6.97259e-06, No Iterations 4
time step continuity errors : sum local = 4.23155e-05, global = 7.75748e-06, cumulative = 7.75748e-06
ExecutionTime = 6.98285 s  ClockTime = 14 s

volFieldValue volAvgFinTemperature write:
    volAverage() of T = 315.034

volFieldValue volAvgHeaterTemperature write:
    volAverage() of T = 327.991

surfaceFieldValue averageTempHeaterFinInterface write:
    areaAverage(heater_to_fins) of T = 315.7

Region: fluid Courant Number mean: 1314.17 max: 120609
Region: fins Diffusion Number mean: 134.776 max: 167602
Region: heater Diffusion Number mean: 69.8575 max: 522.236
Time = 10s


Solving for solid region fins
GAMG:  Solving for e, Initial residual = 0.327466, Final residual = 0.0100712, No Iterations 1
Min/max T:314.745 318.325

Solving for solid region heater
GAMG:  Solving for e, Initial residual = 0.0681589, Final residual = 0.000143529, No Iterations 1
Min/max T:317.443 336.089

Solving for fluid region fluid
DILUPBiCGStab:  Solving for Ux, Initial residual = 0.00233723, Final residual = 0.000104153, No Iterations 1
DILUPBiCGStab:  Solving for Uy, Initial residual = 0.00623647, Final residual = 0.000243633, No Iterations 1
DILUPBiCGStab:  Solving for Uz, Initial residual = 0.00720474, Final residual = 0.00031019, No Iterations 1
DILUPBiCGStab:  Solving for h, Initial residual = 0.00424636, Final residual = 0.000288099, No Iterations 1
Min/max T:296.884 318.066
GAMG:  Solving for p_rgh, Initial residual = 0.0241734, Final residual = 0.000191139, No Iterations 3
GAMG:  Solving for p_rgh, Initial residual = 0.00535628, Final residual = 3.84546e-05, No Iterations 3
GAMG:  Solving for p_rgh, Initial residual = 0.000971262, Final residual = 4.5004e-06, No Iterations 4
time step continuity errors : sum local = 2.76543e-05, global = -5.44793e-06, cumulative = -5.44793e-06
ExecutionTime = 7.14519 s  ClockTime = 15 s

volFieldValue volAvgFinTemperature write:
    volAverage() of T = 317.241

volFieldValue volAvgHeaterTemperature write:
    volAverage() of T = 330.289

surfaceFieldValue averageTempHeaterFinInterface write:
    areaAverage(heater_to_fins) of T = 317.992

Region: fluid Courant Number mean: 1313.97 max: 118896
Region: fins Diffusion Number mean: 134.776 max: 167602
Region: heater Diffusion Number mean: 69.8575 max: 522.236
Time = 11s


Solving for solid region fins
GAMG:  Solving for e, Initial residual = 0.310962, Final residual = 0.00956458, No Iterations 1
Min/max T:316.908 320.607

Solving for solid region heater
GAMG:  Solving for e, Initial residual = 0.0674173, Final residual = 9.20884e-05, No Iterations 1
Min/max T:319.724 338.371

Solving for fluid region fluid
DILUPBiCGStab:  Solving for Ux, Initial residual = 0.00218861, Final residual = 9.73269e-05, No Iterations 1
DILUPBiCGStab:  Solving for Uy, Initial residual = 0.00556927, Final residual = 0.000219352, No Iterations 1
DILUPBiCGStab:  Solving for Uz, Initial residual = 0.00644293, Final residual = 0.00027877, No Iterations 1
DILUPBiCGStab:  Solving for h, Initial residual = 0.00375716, Final residual = 0.000248521, No Iterations 1
Min/max T:296.882 320.343
GAMG:  Solving for p_rgh, Initial residual = 0.0205022, Final residual = 0.000117057, No Iterations 3
GAMG:  Solving for p_rgh, Initial residual = 0.00399863, Final residual = 2.7126e-05, No Iterations 3
GAMG:  Solving for p_rgh, Initial residual = 0.00071316, Final residual = 6.42801e-06, No Iterations 3
time step continuity errors : sum local = 3.95204e-05, global = -2.16448e-06, cumulative = -2.16448e-06
ExecutionTime = 7.31572 s  ClockTime = 15 s

volFieldValue volAvgFinTemperature write:
    volAverage() of T = 319.432

volFieldValue volAvgHeaterTemperature write:
    volAverage() of T = 332.566

surfaceFieldValue averageTempHeaterFinInterface write:
    areaAverage(heater_to_fins) of T = 320.267

Region: fluid Courant Number mean: 1313.78 max: 117666
Region: fins Diffusion Number mean: 134.776 max: 167602
Region: heater Diffusion Number mean: 69.8575 max: 522.236
Time = 12s


Solving for solid region fins
GAMG:  Solving for e, Initial residual = 0.295588, Final residual = 0.00905809, No Iterations 1
Min/max T:319.054 322.872

Solving for solid region heater
GAMG:  Solving for e, Initial residual = 0.0667567, Final residual = 6.37796e-05, No Iterations 1
Min/max T:321.989 340.633

Solving for fluid region fluid
DILUPBiCGStab:  Solving for Ux, Initial residual = 0.00210192, Final residual = 9.36192e-05, No Iterations 1
DILUPBiCGStab:  Solving for Uy, Initial residual = 0.00522935, Final residual = 0.000211236, No Iterations 1
DILUPBiCGStab:  Solving for Uz, Initial residual = 0.00601725, Final residual = 0.000262002, No Iterations 1
DILUPBiCGStab:  Solving for h, Initial residual = 0.00337344, Final residual = 0.000219014, No Iterations 1
Min/max T:296.88 322.606
GAMG:  Solving for p_rgh, Initial residual = 0.0187849, Final residual = 7.69624e-05, No Iterations 3
GAMG:  Solving for p_rgh, Initial residual = 0.0031084, Final residual = 2.31316e-05, No Iterations 3
GAMG:  Solving for p_rgh, Initial residual = 0.000559119, Final residual = 2.96051e-06, No Iterations 4
time step continuity errors : sum local = 1.82647e-05, global = -2.68551e-06, cumulative = -2.68551e-06
ExecutionTime = 7.50926 s  ClockTime = 15 s

volFieldValue volAvgFinTemperature write:
    volAverage() of T = 321.608

volFieldValue volAvgHeaterTemperature write:
    volAverage() of T = 334.824

surfaceFieldValue averageTempHeaterFinInterface write:
    areaAverage(heater_to_fins) of T = 322.525

Region: fluid Courant Number mean: 1313.6 max: 116567
Region: fins Diffusion Number mean: 134.776 max: 167602
Region: heater Diffusion Number mean: 69.8575 max: 522.236
Time = 13s


Solving for solid region fins
GAMG:  Solving for e, Initial residual = 0.281497, Final residual = 0.00857424, No Iterations 1
Min/max T:321.185 325.12

Solving for solid region heater
GAMG:  Solving for e, Initial residual = 0.0661493, Final residual = 4.98622e-05, No Iterations 1
Min/max T:324.237 342.875

Solving for fluid region fluid
DILUPBiCGStab:  Solving for Ux, Initial residual = 0.00201753, Final residual = 8.97304e-05, No Iterations 1
DILUPBiCGStab:  Solving for Uy, Initial residual = 0.00490256, Final residual = 0.000199741, No Iterations 1
DILUPBiCGStab:  Solving for Uz, Initial residual = 0.00556807, Final residual = 0.000242217, No Iterations 1
DILUPBiCGStab:  Solving for h, Initial residual = 0.00307482, Final residual = 0.000197746, No Iterations 1
Min/max T:296.878 324.853
GAMG:  Solving for p_rgh, Initial residual = 0.0172678, Final residual = 6.87714e-05, No Iterations 3
GAMG:  Solving for p_rgh, Initial residual = 0.00281738, Final residual = 1.98522e-05, No Iterations 3
GAMG:  Solving for p_rgh, Initial residual = 0.000507663, Final residual = 2.41769e-06, No Iterations 4
time step continuity errors : sum local = 1.49363e-05, global = -1.79557e-06, cumulative = -1.79557e-06
ExecutionTime = 7.67585 s  ClockTime = 16 s

volFieldValue volAvgFinTemperature write:
    volAverage() of T = 323.768

volFieldValue volAvgHeaterTemperature write:
    volAverage() of T = 337.064

surfaceFieldValue averageTempHeaterFinInterface write:
    areaAverage(heater_to_fins) of T = 324.766

Region: fluid Courant Number mean: 1313.41 max: 115728
Region: fins Diffusion Number mean: 134.776 max: 167602
Region: heater Diffusion Number mean: 69.8575 max: 522.236
Time = 14s


Solving for solid region fins
GAMG:  Solving for e, Initial residual = 0.26845, Final residual = 0.00811486, No Iterations 1
Min/max T:323.301 327.351

Solving for solid region heater
GAMG:  Solving for e, Initial residual = 0.0655754, Final residual = 4.20562e-05, No Iterations 1
Min/max T:326.468 345.099

Solving for fluid region fluid
DILUPBiCGStab:  Solving for Ux, Initial residual = 0.00194538, Final residual = 8.64398e-05, No Iterations 1
DILUPBiCGStab:  Solving for Uy, Initial residual = 0.00467507, Final residual = 0.000192027, No Iterations 1
DILUPBiCGStab:  Solving for Uz, Initial residual = 0.00522511, Final residual = 0.00022695, No Iterations 1
DILUPBiCGStab:  Solving for h, Initial residual = 0.00282725, Final residual = 0.000179116, No Iterations 1
Min/max T:296.876 327.082
GAMG:  Solving for p_rgh, Initial residual = 0.0167965, Final residual = 7.72462e-05, No Iterations 3
GAMG:  Solving for p_rgh, Initial residual = 0.00286568, Final residual = 2.17744e-05, No Iterations 3
GAMG:  Solving for p_rgh, Initial residual = 0.000530555, Final residual = 2.56355e-06, No Iterations 4
time step continuity errors : sum local = 1.58761e-05, global = -2.16038e-06, cumulative = -2.16038e-06
ExecutionTime = 7.83448 s  ClockTime = 16 s

volFieldValue volAvgFinTemperature write:
    volAverage() of T = 325.912

volFieldValue volAvgHeaterTemperature write:
    volAverage() of T = 339.286

surfaceFieldValue averageTempHeaterFinInterface write:
    areaAverage(heater_to_fins) of T = 326.991

Region: fluid Courant Number mean: 1313.24 max: 115064
Region: fins Diffusion Number mean: 134.776 max: 167602
Region: heater Diffusion Number mean: 69.8575 max: 522.236
Time = 15s


Solving for solid region fins
GAMG:  Solving for e, Initial residual = 0.256518, Final residual = 0.00768682, No Iterations 1
Min/max T:325.402 329.565

Solving for solid region heater
GAMG:  Solving for e, Initial residual = 0.0650246, Final residual = 3.7242e-05, No Iterations 1
Min/max T:328.682 347.305

Solving for fluid region fluid
DILUPBiCGStab:  Solving for Ux, Initial residual = 0.00188477, Final residual = 8.36307e-05, No Iterations 1
DILUPBiCGStab:  Solving for Uy, Initial residual = 0.00447619, Final residual = 0.000184616, No Iterations 1
DILUPBiCGStab:  Solving for Uz, Initial residual = 0.00490313, Final residual = 0.000212657, No Iterations 1
DILUPBiCGStab:  Solving for h, Initial residual = 0.00262839, Final residual = 0.000161695, No Iterations 1
Min/max T:296.875 329.296
GAMG:  Solving for p_rgh, Initial residual = 0.0156553, Final residual = 6.54488e-05, No Iterations 3
GAMG:  Solving for p_rgh, Initial residual = 0.00253763, Final residual = 1.85009e-05, No Iterations 3
GAMG:  Solving for p_rgh, Initial residual = 0.000473555, Final residual = 4.73462e-06, No Iterations 3
time step continuity errors : sum local = 2.93695e-05, global = -2.89998e-06, cumulative = -2.89998e-06
ExecutionTime = 8.01455 s  ClockTime = 16 s

volFieldValue volAvgFinTemperature write:
    volAverage() of T = 328.041

volFieldValue volAvgHeaterTemperature write:
    volAverage() of T = 341.491

surfaceFieldValue averageTempHeaterFinInterface write:
    areaAverage(heater_to_fins) of T = 329.199

Region: fluid Courant Number mean: 1313.08 max: 114573
Region: fins Diffusion Number mean: 134.776 max: 167602
Region: heater Diffusion Number mean: 69.8575 max: 522.236
Time = 16s


Solving for solid region fins
GAMG:  Solving for e, Initial residual = 0.245574, Final residual = 0.00729644, No Iterations 1
Min/max T:327.487 331.764

Solving for solid region heater
GAMG:  Solving for e, Initial residual = 0.0644898, Final residual = 3.41817e-05, No Iterations 1
Min/max T:330.862 349.495

Solving for fluid region fluid
DILUPBiCGStab:  Solving for Ux, Initial residual = 0.00182675, Final residual = 8.09385e-05, No Iterations 1
DILUPBiCGStab:  Solving for Uy, Initial residual = 0.00431464, Final residual = 0.000178527, No Iterations 1
DILUPBiCGStab:  Solving for Uz, Initial residual = 0.00462908, Final residual = 0.000200449, No Iterations 1
DILUPBiCGStab:  Solving for h, Initial residual = 0.00246633, Final residual = 0.000147601, No Iterations 1
Min/max T:296.873 331.493
GAMG:  Solving for p_rgh, Initial residual = 0.0148614, Final residual = 6.5076e-05, No Iterations 3
GAMG:  Solving for p_rgh, Initial residual = 0.00252343, Final residual = 1.80585e-05, No Iterations 3
GAMG:  Solving for p_rgh, Initial residual = 0.000461431, Final residual = 4.40422e-06, No Iterations 3
time step continuity errors : sum local = 2.74085e-05, global = -6.02803e-07, cumulative = -6.02803e-07
ExecutionTime = 8.17755 s  ClockTime = 17 s

volFieldValue volAvgFinTemperature write:
    volAverage() of T = 330.156

volFieldValue volAvgHeaterTemperature write:
    volAverage() of T = 343.679

surfaceFieldValue averageTempHeaterFinInterface write:
    areaAverage(heater_to_fins) of T = 331.391

Region: fluid Courant Number mean: 1312.92 max: 114216
Region: fins Diffusion Number mean: 134.776 max: 167602
Region: heater Diffusion Number mean: 69.8575 max: 522.236
Time = 17s


Solving for solid region fins
GAMG:  Solving for e, Initial residual = 0.235431, Final residual = 0.00694306, No Iterations 1
Min/max T:329.558 333.946

Solving for solid region heater
GAMG:  Solving for e, Initial residual = 0.0639661, Final residual = 3.2181e-05, No Iterations 1
Min/max T:333.023 351.668

Solving for fluid region fluid
DILUPBiCGStab:  Solving for Ux, Initial residual = 0.00177487, Final residual = 7.84732e-05, No Iterations 1
DILUPBiCGStab:  Solving for Uy, Initial residual = 0.0041631, Final residual = 0.000172569, No Iterations 1
DILUPBiCGStab:  Solving for Uz, Initial residual = 0.0043684, Final residual = 0.000188959, No Iterations 1
DILUPBiCGStab:  Solving for h, Initial residual = 0.00232209, Final residual = 0.000136648, No Iterations 1
Min/max T:296.872 333.673
GAMG:  Solving for p_rgh, Initial residual = 0.0142446, Final residual = 6.08461e-05, No Iterations 3
GAMG:  Solving for p_rgh, Initial residual = 0.00230691, Final residual = 1.6168e-05, No Iterations 3
GAMG:  Solving for p_rgh, Initial residual = 0.000433301, Final residual = 4.08387e-06, No Iterations 3
time step continuity errors : sum local = 2.54891e-05, global = 5.91805e-07, cumulative = 5.91805e-07
ExecutionTime = 8.33769 s  ClockTime = 17 s

volFieldValue volAvgFinTemperature write:
    volAverage() of T = 332.255

volFieldValue volAvgHeaterTemperature write:
    volAverage() of T = 345.851

surfaceFieldValue averageTempHeaterFinInterface write:
    areaAverage(heater_to_fins) of T = 333.566

Region: fluid Courant Number mean: 1312.77 max: 113965
Region: fins Diffusion Number mean: 134.776 max: 167602
Region: heater Diffusion Number mean: 69.8575 max: 522.236
Time = 18s


Solving for solid region fins
GAMG:  Solving for e, Initial residual = 0.226078, Final residual = 0.00661183, No Iterations 1
Min/max T:331.614 336.112

Solving for solid region heater
GAMG:  Solving for e, Initial residual = 0.0634537, Final residual = 3.07682e-05, No Iterations 1
Min/max T:335.169 353.825

Solving for fluid region fluid
DILUPBiCGStab:  Solving for Ux, Initial residual = 0.00172466, Final residual = 7.61208e-05, No Iterations 1
DILUPBiCGStab:  Solving for Uy, Initial residual = 0.00402291, Final residual = 0.000166692, No Iterations 1
DILUPBiCGStab:  Solving for Uz, Initial residual = 0.0041377, Final residual = 0.000178319, No Iterations 1
DILUPBiCGStab:  Solving for h, Initial residual = 0.00220101, Final residual = 0.000129363, No Iterations 1
Min/max T:296.87 335.838
GAMG:  Solving for p_rgh, Initial residual = 0.0139684, Final residual = 7.09151e-05, No Iterations 3
GAMG:  Solving for p_rgh, Initial residual = 0.00240962, Final residual = 1.73926e-05, No Iterations 3
GAMG:  Solving for p_rgh, Initial residual = 0.000455581, Final residual = 4.54731e-06, No Iterations 3
time step continuity errors : sum local = 2.84342e-05, global = -1.77868e-06, cumulative = -1.77868e-06
ExecutionTime = 8.51073 s  ClockTime = 17 s

volFieldValue volAvgFinTemperature write:
    volAverage() of T = 334.34

volFieldValue volAvgHeaterTemperature write:
    volAverage() of T = 348.008

surfaceFieldValue averageTempHeaterFinInterface write:
    areaAverage(heater_to_fins) of T = 335.726

Region: fluid Courant Number mean: 1312.62 max: 113783
Region: fins Diffusion Number mean: 134.776 max: 167602
Region: heater Diffusion Number mean: 69.8575 max: 522.236
Time = 19s


Solving for solid region fins
GAMG:  Solving for e, Initial residual = 0.217431, Final residual = 0.00630196, No Iterations 1
Min/max T:333.657 338.262

Solving for solid region heater
GAMG:  Solving for e, Initial residual = 0.0629514, Final residual = 2.97279e-05, No Iterations 1
Min/max T:337.299 355.966

Solving for fluid region fluid
DILUPBiCGStab:  Solving for Ux, Initial residual = 0.0016817, Final residual = 7.41328e-05, No Iterations 1
DILUPBiCGStab:  Solving for Uy, Initial residual = 0.00392715, Final residual = 0.000162833, No Iterations 1
DILUPBiCGStab:  Solving for Uz, Initial residual = 0.00393114, Final residual = 0.000168788, No Iterations 1
DILUPBiCGStab:  Solving for h, Initial residual = 0.00209548, Final residual = 0.000121204, No Iterations 1
Min/max T:296.869 337.987
GAMG:  Solving for p_rgh, Initial residual = 0.0132287, Final residual = 6.48748e-05, No Iterations 3
GAMG:  Solving for p_rgh, Initial residual = 0.00210049, Final residual = 1.49487e-05, No Iterations 3
GAMG:  Solving for p_rgh, Initial residual = 0.000394153, Final residual = 3.72464e-06, No Iterations 3
time step continuity errors : sum local = 2.33219e-05, global = -1.31758e-06, cumulative = -1.31758e-06
ExecutionTime = 8.6782 s  ClockTime = 18 s

volFieldValue volAvgFinTemperature write:
    volAverage() of T = 336.411

volFieldValue volAvgHeaterTemperature write:
    volAverage() of T = 350.148

surfaceFieldValue averageTempHeaterFinInterface write:
    areaAverage(heater_to_fins) of T = 337.871

Region: fluid Courant Number mean: 1312.47 max: 113644
Region: fins Diffusion Number mean: 134.776 max: 167602
Region: heater Diffusion Number mean: 69.8575 max: 522.236
Time = 20s


Solving for solid region fins
GAMG:  Solving for e, Initial residual = 0.209393, Final residual = 0.00602088, No Iterations 1
Min/max T:335.685 340.397

Solving for solid region heater
GAMG:  Solving for e, Initial residual = 0.0624566, Final residual = 2.8933e-05, No Iterations 1
Min/max T:339.414 358.092

Solving for fluid region fluid
DILUPBiCGStab:  Solving for Ux, Initial residual = 0.00163843, Final residual = 7.21491e-05, No Iterations 1
DILUPBiCGStab:  Solving for Uy, Initial residual = 0.00382342, Final residual = 0.000158534, No Iterations 1
DILUPBiCGStab:  Solving for Uz, Initial residual = 0.00373871, Final residual = 0.000160247, No Iterations 1
DILUPBiCGStab:  Solving for h, Initial residual = 0.00200044, Final residual = 0.000116178, No Iterations 1
Min/max T:296.868 340.121
GAMG:  Solving for p_rgh, Initial residual = 0.0128064, Final residual = 6.79891e-05, No Iterations 3
GAMG:  Solving for p_rgh, Initial residual = 0.00215016, Final residual = 1.54762e-05, No Iterations 3
GAMG:  Solving for p_rgh, Initial residual = 0.000391379, Final residual = 3.78735e-06, No Iterations 3
time step continuity errors : sum local = 2.3736e-05, global = -1.10654e-06, cumulative = -1.10654e-06
ExecutionTime = 8.84403 s  ClockTime = 18 s

volFieldValue volAvgFinTemperature write:
    volAverage() of T = 338.467

volFieldValue volAvgHeaterTemperature write:
    volAverage() of T = 352.274

surfaceFieldValue averageTempHeaterFinInterface write:
    areaAverage(heater_to_fins) of T = 340

Region: fluid Courant Number mean: 1312.33 max: 113520
Region: fins Diffusion Number mean: 134.776 max: 167602
Region: heater Diffusion Number mean: 69.8575 max: 522.236
Time = 21s


Solving for solid region fins
GAMG:  Solving for e, Initial residual = 0.201857, Final residual = 0.00575495, No Iterations 1
Min/max T:337.7 342.517

Solving for solid region heater
GAMG:  Solving for e, Initial residual = 0.0619702, Final residual = 2.82525e-05, No Iterations 1
Min/max T:341.515 360.203

Solving for fluid region fluid
DILUPBiCGStab:  Solving for Ux, Initial residual = 0.0015984, Final residual = 7.03707e-05, No Iterations 1
DILUPBiCGStab:  Solving for Uy, Initial residual = 0.00373963, Final residual = 0.000155223, No Iterations 1
DILUPBiCGStab:  Solving for Uz, Initial residual = 0.00356431, Final residual = 0.00015247, No Iterations 1
DILUPBiCGStab:  Solving for h, Initial residual = 0.00192099, Final residual = 0.000113328, No Iterations 1
Min/max T:296.866 342.24
GAMG:  Solving for p_rgh, Initial residual = 0.0124613, Final residual = 5.9212e-05, No Iterations 3
GAMG:  Solving for p_rgh, Initial residual = 0.00210131, Final residual = 1.34137e-05, No Iterations 3
GAMG:  Solving for p_rgh, Initial residual = 0.000372114, Final residual = 3.12828e-06, No Iterations 3
time step continuity errors : sum local = 1.96252e-05, global = -7.38544e-07, cumulative = -7.38544e-07
ExecutionTime = 8.9878 s  ClockTime = 18 s

volFieldValue volAvgFinTemperature write:
    volAverage() of T = 340.509

volFieldValue volAvgHeaterTemperature write:
    volAverage() of T = 354.384

surfaceFieldValue averageTempHeaterFinInterface write:
    areaAverage(heater_to_fins) of T = 342.113

Region: fluid Courant Number mean: 1312.2 max: 113386
Region: fins Diffusion Number mean: 134.776 max: 167602
Region: heater Diffusion Number mean: 69.8575 max: 522.236
Time = 22s


Solving for solid region fins
GAMG:  Solving for e, Initial residual = 0.194839, Final residual = 0.00551636, No Iterations 1
Min/max T:339.701 344.621

Solving for solid region heater
GAMG:  Solving for e, Initial residual = 0.0614895, Final residual = 2.76846e-05, No Iterations 1
Min/max T:343.6 362.298

Solving for fluid region fluid
DILUPBiCGStab:  Solving for Ux, Initial residual = 0.00155945, Final residual = 6.85863e-05, No Iterations 1
DILUPBiCGStab:  Solving for Uy, Initial residual = 0.00365424, Final residual = 0.000151771, No Iterations 1
DILUPBiCGStab:  Solving for Uz, Initial residual = 0.00339983, Final residual = 0.000145018, No Iterations 1
DILUPBiCGStab:  Solving for h, Initial residual = 0.00185697, Final residual = 0.000114917, No Iterations 1
Min/max T:296.864 344.343
GAMG:  Solving for p_rgh, Initial residual = 0.012002, Final residual = 5.25035e-05, No Iterations 3
GAMG:  Solving for p_rgh, Initial residual = 0.00206721, Final residual = 1.20462e-05, No Iterations 3
GAMG:  Solving for p_rgh, Initial residual = 0.000344111, Final residual = 2.62764e-06, No Iterations 3
time step continuity errors : sum local = 1.65052e-05, global = -4.3455e-07, cumulative = -4.3455e-07
ExecutionTime = 9.13528 s  ClockTime = 18 s

volFieldValue volAvgFinTemperature write:
    volAverage() of T = 342.538

volFieldValue volAvgHeaterTemperature write:
    volAverage() of T = 356.479

surfaceFieldValue averageTempHeaterFinInterface write:
    areaAverage(heater_to_fins) of T = 344.212

Region: fluid Courant Number mean: 1312.07 max: 113223
Region: fins Diffusion Number mean: 134.776 max: 167602
Region: heater Diffusion Number mean: 69.8575 max: 522.236
Time = 23s


Solving for solid region fins
GAMG:  Solving for e, Initial residual = 0.188282, Final residual = 0.00530771, No Iterations 1
Min/max T:341.688 346.711

Solving for solid region heater
GAMG:  Solving for e, Initial residual = 0.0610128, Final residual = 2.72218e-05, No Iterations 1
Min/max T:345.671 364.379

Solving for fluid region fluid
DILUPBiCGStab:  Solving for Ux, Initial residual = 0.00152273, Final residual = 6.69435e-05, No Iterations 1
DILUPBiCGStab:  Solving for Uy, Initial residual = 0.00356864, Final residual = 0.000148171, No Iterations 1
DILUPBiCGStab:  Solving for Uz, Initial residual = 0.00324863, Final residual = 0.000138272, No Iterations 1
DILUPBiCGStab:  Solving for h, Initial residual = 0.00180202, Final residual = 0.000114393, No Iterations 1
Min/max T:296.862 346.431
GAMG:  Solving for p_rgh, Initial residual = 0.0120866, Final residual = 5.10887e-05, No Iterations 3
GAMG:  Solving for p_rgh, Initial residual = 0.00200381, Final residual = 1.10329e-05, No Iterations 3
GAMG:  Solving for p_rgh, Initial residual = 0.00032552, Final residual = 2.36873e-06, No Iterations 3
time step continuity errors : sum local = 1.49116e-05, global = -5.50081e-07, cumulative = -5.50081e-07
ExecutionTime = 9.27847 s  ClockTime = 19 s

volFieldValue volAvgFinTemperature write:
    volAverage() of T = 344.552

volFieldValue volAvgHeaterTemperature write:
    volAverage() of T = 358.559

surfaceFieldValue averageTempHeaterFinInterface write:
    areaAverage(heater_to_fins) of T = 346.296

Region: fluid Courant Number mean: 1311.95 max: 113020
Region: fins Diffusion Number mean: 134.776 max: 167602
Region: heater Diffusion Number mean: 69.8575 max: 522.236
Time = 24s


Solving for solid region fins
GAMG:  Solving for e, Initial residual = 0.182144, Final residual = 0.00512582, No Iterations 1
Min/max T:343.662 348.785

Solving for solid region heater
GAMG:  Solving for e, Initial residual = 0.0605387, Final residual = 2.68497e-05, No Iterations 1
Min/max T:347.728 366.445

Solving for fluid region fluid
DILUPBiCGStab:  Solving for Ux, Initial residual = 0.00148936, Final residual = 6.53798e-05, No Iterations 1
DILUPBiCGStab:  Solving for Uy, Initial residual = 0.00349148, Final residual = 0.000145032, No Iterations 1
DILUPBiCGStab:  Solving for Uz, Initial residual = 0.0031088, Final residual = 0.000131925, No Iterations 1
DILUPBiCGStab:  Solving for h, Initial residual = 0.00174976, Final residual = 0.000109459, No Iterations 1
Min/max T:296.86 348.505
GAMG:  Solving for p_rgh, Initial residual = 0.0118282, Final residual = 5.15176e-05, No Iterations 3
GAMG:  Solving for p_rgh, Initial residual = 0.00199737, Final residual = 1.00837e-05, No Iterations 3
GAMG:  Solving for p_rgh, Initial residual = 0.000338707, Final residual = 2.13834e-06, No Iterations 3
time step continuity errors : sum local = 1.35036e-05, global = 1.43479e-06, cumulative = 1.43479e-06
ExecutionTime = 9.44314 s  ClockTime = 19 s

volFieldValue volAvgFinTemperature write:
    volAverage() of T = 346.552

volFieldValue volAvgHeaterTemperature write:
    volAverage() of T = 360.624

surfaceFieldValue averageTempHeaterFinInterface write:
    areaAverage(heater_to_fins) of T = 348.365

Region: fluid Courant Number mean: 1311.83 max: 112769
Region: fins Diffusion Number mean: 134.776 max: 167602
Region: heater Diffusion Number mean: 69.8575 max: 522.236
Time = 25s


Solving for solid region fins
GAMG:  Solving for e, Initial residual = 0.17637, Final residual = 0.00496375, No Iterations 1
Min/max T:345.622 350.845

Solving for solid region heater
GAMG:  Solving for e, Initial residual = 0.0600672, Final residual = 2.6544e-05, No Iterations 1
Min/max T:349.769 368.496

Solving for fluid region fluid
DILUPBiCGStab:  Solving for Ux, Initial residual = 0.00145598, Final residual = 6.37082e-05, No Iterations 1
DILUPBiCGStab:  Solving for Uy, Initial residual = 0.00340217, Final residual = 0.000141417, No Iterations 1
DILUPBiCGStab:  Solving for Uz, Initial residual = 0.00297414, Final residual = 0.000125804, No Iterations 1
DILUPBiCGStab:  Solving for h, Initial residual = 0.00170104, Final residual = 0.000103455, No Iterations 1
Min/max T:296.858 350.563
GAMG:  Solving for p_rgh, Initial residual = 0.010916, Final residual = 4.94983e-05, No Iterations 3
GAMG:  Solving for p_rgh, Initial residual = 0.00175304, Final residual = 9.68285e-06, No Iterations 3
GAMG:  Solving for p_rgh, Initial residual = 0.000306643, Final residual = 1.94429e-06, No Iterations 3
time step continuity errors : sum local = 1.23226e-05, global = 2.33788e-06, cumulative = 2.33788e-06
ExecutionTime = 9.6089 s  ClockTime = 19 s

volFieldValue volAvgFinTemperature write:
    volAverage() of T = 348.538

volFieldValue volAvgHeaterTemperature write:
    volAverage() of T = 362.675

surfaceFieldValue averageTempHeaterFinInterface write:
    areaAverage(heater_to_fins) of T = 350.42

Region: fluid Courant Number mean: 1311.72 max: 112457
Region: fins Diffusion Number mean: 134.776 max: 167602
Region: heater Diffusion Number mean: 69.8575 max: 522.236
Time = 26s


Solving for solid region fins
GAMG:  Solving for e, Initial residual = 0.170921, Final residual = 0.00481404, No Iterations 1
Min/max T:347.568 352.89

Solving for solid region heater
GAMG:  Solving for e, Initial residual = 0.059599, Final residual = 2.62768e-05, No Iterations 1
Min/max T:351.797 370.533

Solving for fluid region fluid
DILUPBiCGStab:  Solving for Ux, Initial residual = 0.00142417, Final residual = 6.21306e-05, No Iterations 1
DILUPBiCGStab:  Solving for Uy, Initial residual = 0.00331655, Final residual = 0.000137583, No Iterations 1
DILUPBiCGStab:  Solving for Uz, Initial residual = 0.00284771, Final residual = 0.000120092, No Iterations 1
DILUPBiCGStab:  Solving for h, Initial residual = 0.0016517, Final residual = 9.92496e-05, No Iterations 1
Min/max T:296.856 352.607
GAMG:  Solving for p_rgh, Initial residual = 0.0106066, Final residual = 4.84079e-05, No Iterations 3
GAMG:  Solving for p_rgh, Initial residual = 0.0017532, Final residual = 9.55604e-06, No Iterations 3
GAMG:  Solving for p_rgh, Initial residual = 0.000295712, Final residual = 1.92447e-06, No Iterations 3
time step continuity errors : sum local = 1.22407e-05, global = 2.31104e-06, cumulative = 2.31104e-06
ExecutionTime = 9.77118 s  ClockTime = 20 s

volFieldValue volAvgFinTemperature write:
    volAverage() of T = 350.509

volFieldValue volAvgHeaterTemperature write:
    volAverage() of T = 364.711

surfaceFieldValue averageTempHeaterFinInterface write:
    areaAverage(heater_to_fins) of T = 352.459

Region: fluid Courant Number mean: 1311.61 max: 112076
Region: fins Diffusion Number mean: 134.776 max: 167602
Region: heater Diffusion Number mean: 69.8575 max: 522.236
Time = 27s


Solving for solid region fins
GAMG:  Solving for e, Initial residual = 0.165759, Final residual = 0.00467121, No Iterations 1
Min/max T:349.5 354.92

Solving for solid region heater
GAMG:  Solving for e, Initial residual = 0.0591348, Final residual = 2.60233e-05, No Iterations 1
Min/max T:353.809 372.555

Solving for fluid region fluid
DILUPBiCGStab:  Solving for Ux, Initial residual = 0.00139406, Final residual = 6.05789e-05, No Iterations 1
DILUPBiCGStab:  Solving for Uy, Initial residual = 0.00324212, Final residual = 0.000134209, No Iterations 1
DILUPBiCGStab:  Solving for Uz, Initial residual = 0.00273146, Final residual = 0.000114944, No Iterations 1
DILUPBiCGStab:  Solving for h, Initial residual = 0.0016031, Final residual = 9.56721e-05, No Iterations 1
Min/max T:296.854 354.637
GAMG:  Solving for p_rgh, Initial residual = 0.0101215, Final residual = 5.53085e-05, No Iterations 3
GAMG:  Solving for p_rgh, Initial residual = 0.00180836, Final residual = 1.07793e-05, No Iterations 3
GAMG:  Solving for p_rgh, Initial residual = 0.000315598, Final residual = 2.13425e-06, No Iterations 3
time step continuity errors : sum local = 1.36237e-05, global = 3.39278e-06, cumulative = 3.39278e-06
ExecutionTime = 9.93032 s  ClockTime = 20 s

volFieldValue volAvgFinTemperature write:
    volAverage() of T = 352.467

volFieldValue volAvgHeaterTemperature write:
    volAverage() of T = 366.733

surfaceFieldValue averageTempHeaterFinInterface write:
    areaAverage(heater_to_fins) of T = 354.484

Region: fluid Courant Number mean: 1311.51 max: 111618
Region: fins Diffusion Number mean: 134.776 max: 167602
Region: heater Diffusion Number mean: 69.8575 max: 522.236
Time = 28s


Solving for solid region fins
GAMG:  Solving for e, Initial residual = 0.16084, Final residual = 0.00455943, No Iterations 1
Min/max T:351.419 356.936

Solving for solid region heater
GAMG:  Solving for e, Initial residual = 0.0586682, Final residual = 2.59323e-05, No Iterations 1
Min/max T:355.807 374.562

Solving for fluid region fluid
DILUPBiCGStab:  Solving for Ux, Initial residual = 0.00136573, Final residual = 5.91284e-05, No Iterations 1
DILUPBiCGStab:  Solving for Uy, Initial residual = 0.00315897, Final residual = 0.000130782, No Iterations 1
DILUPBiCGStab:  Solving for Uz, Initial residual = 0.00261613, Final residual = 0.000109839, No Iterations 1
DILUPBiCGStab:  Solving for h, Initial residual = 0.00155667, Final residual = 9.20136e-05, No Iterations 1
Min/max T:296.852 356.651
GAMG:  Solving for p_rgh, Initial residual = 0.00972879, Final residual = 4.28599e-05, No Iterations 3
GAMG:  Solving for p_rgh, Initial residual = 0.00160084, Final residual = 8.59958e-06, No Iterations 3
GAMG:  Solving for p_rgh, Initial residual = 0.000269945, Final residual = 1.75517e-06, No Iterations 3
time step continuity errors : sum local = 1.12378e-05, global = 1.69819e-06, cumulative = 1.69819e-06
ExecutionTime = 10.0942 s  ClockTime = 20 s

volFieldValue volAvgFinTemperature write:
    volAverage() of T = 354.409

volFieldValue volAvgHeaterTemperature write:
    volAverage() of T = 368.74

surfaceFieldValue averageTempHeaterFinInterface write:
    areaAverage(heater_to_fins) of T = 356.495

Region: fluid Courant Number mean: 1311.4 max: 111101
Region: fins Diffusion Number mean: 134.776 max: 167602
Region: heater Diffusion Number mean: 69.8575 max: 522.236
Time = 29s


Solving for solid region fins
GAMG:  Solving for e, Initial residual = 0.156154, Final residual = 0.00450142, No Iterations 1
Min/max T:353.323 358.937

Solving for solid region heater
GAMG:  Solving for e, Initial residual = 0.0581913, Final residual = 2.61289e-05, No Iterations 1
Min/max T:357.791 376.554

Solving for fluid region fluid
DILUPBiCGStab:  Solving for Ux, Initial residual = 0.0013386, Final residual = 5.77459e-05, No Iterations 1
DILUPBiCGStab:  Solving for Uy, Initial residual = 0.00310291, Final residual = 0.000128596, No Iterations 1
DILUPBiCGStab:  Solving for Uz, Initial residual = 0.00251618, Final residual = 0.000105352, No Iterations 1
DILUPBiCGStab:  Solving for h, Initial residual = 0.00151682, Final residual = 8.88025e-05, No Iterations 1
Min/max T:296.85 358.651
GAMG:  Solving for p_rgh, Initial residual = 0.00935879, Final residual = 4.32776e-05, No Iterations 3
GAMG:  Solving for p_rgh, Initial residual = 0.00158427, Final residual = 8.7612e-06, No Iterations 3
GAMG:  Solving for p_rgh, Initial residual = 0.000263941, Final residual = 1.8138e-06, No Iterations 3
time step continuity errors : sum local = 1.16531e-05, global = 1.55405e-06, cumulative = 1.55405e-06
ExecutionTime = 10.2459 s  ClockTime = 21 s

volFieldValue volAvgFinTemperature write:
    volAverage() of T = 356.337

volFieldValue volAvgHeaterTemperature write:
    volAverage() of T = 370.731

surfaceFieldValue averageTempHeaterFinInterface write:
    areaAverage(heater_to_fins) of T = 358.491

Region: fluid Courant Number mean: 1311.29 max: 110551
Region: fins Diffusion Number mean: 134.776 max: 167602
Region: heater Diffusion Number mean: 69.8575 max: 522.236
Time = 30s


Solving for solid region fins
GAMG:  Solving for e, Initial residual = 0.151686, Final residual = 0.00449988, No Iterations 1
Min/max T:355.211 360.922

Solving for solid region heater
GAMG:  Solving for e, Initial residual = 0.0576991, Final residual = 2.6633e-05, No Iterations 1
Min/max T:359.758 378.531

Solving for fluid region fluid
DILUPBiCGStab:  Solving for Ux, Initial residual = 0.00131299, Final residual = 5.64857e-05, No Iterations 1
DILUPBiCGStab:  Solving for Uy, Initial residual = 0.0030521, Final residual = 0.000126479, No Iterations 1
DILUPBiCGStab:  Solving for Uz, Initial residual = 0.00242083, Final residual = 0.000101108, No Iterations 1
DILUPBiCGStab:  Solving for h, Initial residual = 0.00148093, Final residual = 8.49988e-05, No Iterations 1
Min/max T:296.848 360.635
GAMG:  Solving for p_rgh, Initial residual = 0.00956513, Final residual = 4.42863e-05, No Iterations 3
GAMG:  Solving for p_rgh, Initial residual = 0.00162228, Final residual = 9.90408e-06, No Iterations 3
GAMG:  Solving for p_rgh, Initial residual = 0.000260513, Final residual = 2.06407e-06, No Iterations 3
time step continuity errors : sum local = 1.332e-05, global = 2.06979e-06, cumulative = 2.06979e-06
ExecutionTime = 10.4088 s  ClockTime = 21 s

volFieldValue volAvgFinTemperature write:
    volAverage() of T = 358.247

volFieldValue volAvgHeaterTemperature write:
    volAverage() of T = 372.708

surfaceFieldValue averageTempHeaterFinInterface write:
    areaAverage(heater_to_fins) of T = 360.471

Region: fluid Courant Number mean: 1311.18 max: 109993
Region: fins Diffusion Number mean: 134.776 max: 167602
Region: heater Diffusion Number mean: 69.8575 max: 522.236
Time = 31s


Solving for solid region fins
GAMG:  Solving for e, Initial residual = 0.147436, Final residual = 0.0045087, No Iterations 1
Min/max T:357.081 362.892

Solving for solid region heater
GAMG:  Solving for e, Initial residual = 0.0571983, Final residual = 2.72197e-05, No Iterations 1
Min/max T:361.71 380.492

Solving for fluid region fluid
DILUPBiCGStab:  Solving for Ux, Initial residual = 0.00128853, Final residual = 5.53316e-05, No Iterations 1
DILUPBiCGStab:  Solving for Uy, Initial residual = 0.00301583, Final residual = 0.00012501, No Iterations 1
DILUPBiCGStab:  Solving for Uz, Initial residual = 0.00233196, Final residual = 9.71589e-05, No Iterations 1
DILUPBiCGStab:  Solving for h, Initial residual = 0.00145039, Final residual = 8.05547e-05, No Iterations 1
Min/max T:296.847 362.604
GAMG:  Solving for p_rgh, Initial residual = 0.00913655, Final residual = 4.50457e-05, No Iterations 3
GAMG:  Solving for p_rgh, Initial residual = 0.00151573, Final residual = 8.48484e-06, No Iterations 3
GAMG:  Solving for p_rgh, Initial residual = 0.000258997, Final residual = 1.90313e-06, No Iterations 3
time step continuity errors : sum local = 1.22971e-05, global = 2.89819e-06, cumulative = 2.89819e-06
ExecutionTime = 10.5882 s  ClockTime = 21 s

volFieldValue volAvgFinTemperature write:
    volAverage() of T = 360.139

volFieldValue volAvgHeaterTemperature write:
    volAverage() of T = 374.668

surfaceFieldValue averageTempHeaterFinInterface write:
    areaAverage(heater_to_fins) of T = 362.435

Region: fluid Courant Number mean: 1311.07 max: 109342
Region: fins Diffusion Number mean: 134.776 max: 167602
Region: heater Diffusion Number mean: 69.8575 max: 522.236
Time = 32s


Solving for solid region fins
GAMG:  Solving for e, Initial residual = 0.143284, Final residual = 0.00452823, No Iterations 1
Min/max T:358.932 364.846

Solving for solid region heater
GAMG:  Solving for e, Initial residual = 0.0566881, Final residual = 2.79159e-05, No Iterations 1
Min/max T:363.645 382.437

Solving for fluid region fluid
DILUPBiCGStab:  Solving for Ux, Initial residual = 0.00126212, Final residual = 5.40228e-05, No Iterations 1
DILUPBiCGStab:  Solving for Uy, Initial residual = 0.00297244, Final residual = 0.000123542, No Iterations 1
DILUPBiCGStab:  Solving for Uz, Initial residual = 0.00224747, Final residual = 9.34661e-05, No Iterations 1
DILUPBiCGStab:  Solving for h, Initial residual = 0.00142136, Final residual = 7.71129e-05, No Iterations 1
Min/max T:296.845 364.556
GAMG:  Solving for p_rgh, Initial residual = 0.00873828, Final residual = 4.08438e-05, No Iterations 3
GAMG:  Solving for p_rgh, Initial residual = 0.00143008, Final residual = 7.60162e-06, No Iterations 3
GAMG:  Solving for p_rgh, Initial residual = 0.000245129, Final residual = 1.69897e-06, No Iterations 3
time step continuity errors : sum local = 1.10077e-05, global = 1.80852e-06, cumulative = 1.80852e-06
ExecutionTime = 10.7641 s  ClockTime = 22 s

volFieldValue volAvgFinTemperature write:
    volAverage() of T = 362.014

volFieldValue volAvgHeaterTemperature write:
    volAverage() of T = 376.612

surfaceFieldValue averageTempHeaterFinInterface write:
    areaAverage(heater_to_fins) of T = 364.384

Region: fluid Courant Number mean: 1310.96 max: 108590
Region: fins Diffusion Number mean: 134.776 max: 167602
Region: heater Diffusion Number mean: 69.8575 max: 522.236
Time = 33s


Solving for solid region fins
GAMG:  Solving for e, Initial residual = 0.139261, Final residual = 0.00454629, No Iterations 1
Min/max T:360.764 366.783

Solving for solid region heater
GAMG:  Solving for e, Initial residual = 0.0561705, Final residual = 2.86553e-05, No Iterations 1
Min/max T:365.563 384.365

Solving for fluid region fluid
DILUPBiCGStab:  Solving for Ux, Initial residual = 0.00123726, Final residual = 5.28367e-05, No Iterations 1
DILUPBiCGStab:  Solving for Uy, Initial residual = 0.00293718, Final residual = 0.00012238, No Iterations 1
DILUPBiCGStab:  Solving for Uz, Initial residual = 0.00216532, Final residual = 8.97576e-05, No Iterations 1
DILUPBiCGStab:  Solving for h, Initial residual = 0.00139374, Final residual = 7.32445e-05, No Iterations 1
Min/max T:296.843 366.493
GAMG:  Solving for p_rgh, Initial residual = 0.0084566, Final residual = 3.9048e-05, No Iterations 3
GAMG:  Solving for p_rgh, Initial residual = 0.00135354, Final residual = 7.82726e-06, No Iterations 3
GAMG:  Solving for p_rgh, Initial residual = 0.000227492, Final residual = 1.64647e-06, No Iterations 3
time step continuity errors : sum local = 1.06975e-05, global = 1.96549e-06, cumulative = 1.96549e-06
ExecutionTime = 10.9482 s  ClockTime = 22 s

volFieldValue volAvgFinTemperature write:
    volAverage() of T = 363.87

volFieldValue volAvgHeaterTemperature write:
    volAverage() of T = 378.54

surfaceFieldValue averageTempHeaterFinInterface write:
    areaAverage(heater_to_fins) of T = 366.316

Region: fluid Courant Number mean: 1310.85 max: 107815
Region: fins Diffusion Number mean: 134.776 max: 167602
Region: heater Diffusion Number mean: 69.8575 max: 522.236
Time = 34s


Solving for solid region fins
GAMG:  Solving for e, Initial residual = 0.135304, Final residual = 0.00455076, No Iterations 1
Min/max T:362.576 368.705

Solving for solid region heater
GAMG:  Solving for e, Initial residual = 0.055649, Final residual = 2.93676e-05, No Iterations 1
Min/max T:367.465 386.277

Solving for fluid region fluid
DILUPBiCGStab:  Solving for Ux, Initial residual = 0.00121315, Final residual = 5.16756e-05, No Iterations 1
DILUPBiCGStab:  Solving for Uy, Initial residual = 0.00290805, Final residual = 0.000121397, No Iterations 1
DILUPBiCGStab:  Solving for Uz, Initial residual = 0.00208964, Final residual = 8.64261e-05, No Iterations 1
DILUPBiCGStab:  Solving for h, Initial residual = 0.00136896, Final residual = 6.97294e-05, No Iterations 1
Min/max T:296.841 368.413
GAMG:  Solving for p_rgh, Initial residual = 0.00808969, Final residual = 3.88696e-05, No Iterations 3
GAMG:  Solving for p_rgh, Initial residual = 0.0013123, Final residual = 7.63369e-06, No Iterations 3
GAMG:  Solving for p_rgh, Initial residual = 0.00022019, Final residual = 1.56765e-06, No Iterations 3
time step continuity errors : sum local = 1.0214e-05, global = 1.18813e-06, cumulative = 1.18813e-06
ExecutionTime = 11.1081 s  ClockTime = 22 s

volFieldValue volAvgFinTemperature write:
    volAverage() of T = 365.708

volFieldValue volAvgHeaterTemperature write:
    volAverage() of T = 380.452

surfaceFieldValue averageTempHeaterFinInterface write:
    areaAverage(heater_to_fins) of T = 368.231

Region: fluid Courant Number mean: 1310.74 max: 106996
Region: fins Diffusion Number mean: 134.776 max: 167602
Region: heater Diffusion Number mean: 69.8575 max: 522.236
Time = 35s


Solving for solid region fins
GAMG:  Solving for e, Initial residual = 0.131424, Final residual = 0.00453861, No Iterations 1
Min/max T:364.366 370.61

Solving for solid region heater
GAMG:  Solving for e, Initial residual = 0.0551246, Final residual = 3.00657e-05, No Iterations 1
Min/max T:369.349 388.172

Solving for fluid region fluid
DILUPBiCGStab:  Solving for Ux, Initial residual = 0.00119005, Final residual = 5.05855e-05, No Iterations 1
DILUPBiCGStab:  Solving for Uy, Initial residual = 0.0028842, Final residual = 0.00012054, No Iterations 1
DILUPBiCGStab:  Solving for Uz, Initial residual = 0.00201804, Final residual = 8.32816e-05, No Iterations 1
DILUPBiCGStab:  Solving for h, Initial residual = 0.00134634, Final residual = 6.64128e-05, No Iterations 1
Min/max T:296.84 370.317
GAMG:  Solving for p_rgh, Initial residual = 0.00788395, Final residual = 3.87055e-05, No Iterations 3
GAMG:  Solving for p_rgh, Initial residual = 0.00127796, Final residual = 7.78148e-06, No Iterations 3
GAMG:  Solving for p_rgh, Initial residual = 0.00021852, Final residual = 1.61464e-06, No Iterations 3
time step continuity errors : sum local = 1.05518e-05, global = 8.37828e-07, cumulative = 8.37828e-07
ExecutionTime = 11.2964 s  ClockTime = 23 s

volFieldValue volAvgFinTemperature write:
    volAverage() of T = 367.528

volFieldValue volAvgHeaterTemperature write:
    volAverage() of T = 382.346

surfaceFieldValue averageTempHeaterFinInterface write:
    areaAverage(heater_to_fins) of T = 370.13

Region: fluid Courant Number mean: 1310.63 max: 106133
Region: fins Diffusion Number mean: 134.776 max: 167602
Region: heater Diffusion Number mean: 69.8575 max: 522.236
Time = 36s


Solving for solid region fins
GAMG:  Solving for e, Initial residual = 0.127636, Final residual = 0.00450679, No Iterations 1
Min/max T:366.137 372.498

Solving for solid region heater
GAMG:  Solving for e, Initial residual = 0.0546015, Final residual = 3.0655e-05, No Iterations 1
Min/max T:371.217 390.051

Solving for fluid region fluid
DILUPBiCGStab:  Solving for Ux, Initial residual = 0.0011675, Final residual = 4.94977e-05, No Iterations 1
DILUPBiCGStab:  Solving for Uy, Initial residual = 0.0028647, Final residual = 0.000119836, No Iterations 1
DILUPBiCGStab:  Solving for Uz, Initial residual = 0.00194969, Final residual = 8.02708e-05, No Iterations 1
DILUPBiCGStab:  Solving for h, Initial residual = 0.00132316, Final residual = 6.35431e-05, No Iterations 1
Min/max T:296.838 372.204
GAMG:  Solving for p_rgh, Initial residual = 0.0077059, Final residual = 3.86782e-05, No Iterations 3
GAMG:  Solving for p_rgh, Initial residual = 0.00125069, Final residual = 7.58231e-06, No Iterations 3
GAMG:  Solving for p_rgh, Initial residual = 0.000211564, Final residual = 1.56171e-06, No Iterations 3
time step continuity errors : sum local = 1.0234e-05, global = 9.3725e-07, cumulative = 9.3725e-07
ExecutionTime = 11.4992 s  ClockTime = 23 s

volFieldValue volAvgFinTemperature write:
    volAverage() of T = 369.33

volFieldValue volAvgHeaterTemperature write:
    volAverage() of T = 384.224

surfaceFieldValue averageTempHeaterFinInterface write:
    areaAverage(heater_to_fins) of T = 372.012

Region: fluid Courant Number mean: 1310.52 max: 105236
Region: fins Diffusion Number mean: 134.776 max: 167602
Region: heater Diffusion Number mean: 69.8575 max: 522.236
Time = 37s


Solving for solid region fins
GAMG:  Solving for e, Initial residual = 0.123926, Final residual = 0.00446722, No Iterations 1
Min/max T:367.888 374.37

Solving for solid region heater
GAMG:  Solving for e, Initial residual = 0.0540786, Final residual = 3.11803e-05, No Iterations 1
Min/max T:373.068 391.913

Solving for fluid region fluid
DILUPBiCGStab:  Solving for Ux, Initial residual = 0.00114563, Final residual = 4.84524e-05, No Iterations 1
DILUPBiCGStab:  Solving for Uy, Initial residual = 0.00284892, Final residual = 0.00011933, No Iterations 1
DILUPBiCGStab:  Solving for Uz, Initial residual = 0.00188562, Final residual = 7.75018e-05, No Iterations 1
DILUPBiCGStab:  Solving for h, Initial residual = 0.00130157, Final residual = 6.31219e-05, No Iterations 1
Min/max T:296.836 374.075
GAMG:  Solving for p_rgh, Initial residual = 0.00756823, Final residual = 3.85334e-05, No Iterations 3
GAMG:  Solving for p_rgh, Initial residual = 0.00122546, Final residual = 7.55709e-06, No Iterations 3
GAMG:  Solving for p_rgh, Initial residual = 0.00020917, Final residual = 1.48279e-06, No Iterations 3
time step continuity errors : sum local = 9.7398e-06, global = 5.28481e-07, cumulative = 5.28481e-07
ExecutionTime = 11.7552 s  ClockTime = 23 s

volFieldValue volAvgFinTemperature write:
    volAverage() of T = 371.115

volFieldValue volAvgHeaterTemperature write:
    volAverage() of T = 386.085

surfaceFieldValue averageTempHeaterFinInterface write:
    areaAverage(heater_to_fins) of T = 373.877

Region: fluid Courant Number mean: 1310.4 max: 104316
Region: fins Diffusion Number mean: 134.776 max: 167602
Region: heater Diffusion Number mean: 69.8575 max: 522.236
Time = 38s


Solving for solid region fins
GAMG:  Solving for e, Initial residual = 0.120343, Final residual = 0.00442335, No Iterations 1
Min/max T:369.622 376.225

Solving for solid region heater
GAMG:  Solving for e, Initial residual = 0.0535556, Final residual = 3.16532e-05, No Iterations 1
Min/max T:374.901 393.758

Solving for fluid region fluid
DILUPBiCGStab:  Solving for Ux, Initial residual = 0.00112433, Final residual = 4.74637e-05, No Iterations 1
DILUPBiCGStab:  Solving for Uy, Initial residual = 0.00283635, Final residual = 0.000119019, No Iterations 1
DILUPBiCGStab:  Solving for Uz, Initial residual = 0.00182597, Final residual = 7.49877e-05, No Iterations 1
DILUPBiCGStab:  Solving for h, Initial residual = 0.00127821, Final residual = 6.35383e-05, No Iterations 1
Min/max T:296.835 375.929
GAMG:  Solving for p_rgh, Initial residual = 0.0074696, Final residual = 3.83305e-05, No Iterations 3
GAMG:  Solving for p_rgh, Initial residual = 0.00121728, Final residual = 7.39666e-06, No Iterations 3
GAMG:  Solving for p_rgh, Initial residual = 0.000206239, Final residual = 1.48518e-06, No Iterations 3
time step continuity errors : sum local = 9.77764e-06, global = 3.70066e-07, cumulative = 3.70066e-07
ExecutionTime = 12.0345 s  ClockTime = 24 s

volFieldValue volAvgFinTemperature write:
    volAverage() of T = 372.883

volFieldValue volAvgHeaterTemperature write:
    volAverage() of T = 387.93

surfaceFieldValue averageTempHeaterFinInterface write:
    areaAverage(heater_to_fins) of T = 375.726

Region: fluid Courant Number mean: 1310.29 max: 103383
Region: fins Diffusion Number mean: 134.776 max: 167602
Region: heater Diffusion Number mean: 69.8575 max: 522.236
Time = 39s


Solving for solid region fins
GAMG:  Solving for e, Initial residual = 0.116875, Final residual = 0.00436552, No Iterations 1
Min/max T:371.336 378.064

Solving for solid region heater
GAMG:  Solving for e, Initial residual = 0.0530359, Final residual = 3.202e-05, No Iterations 1
Min/max T:376.718 395.587

Solving for fluid region fluid
DILUPBiCGStab:  Solving for Ux, Initial residual = 0.00110341, Final residual = 4.64977e-05, No Iterations 1
DILUPBiCGStab:  Solving for Uy, Initial residual = 0.00282697, Final residual = 0.000118756, No Iterations 1
DILUPBiCGStab:  Solving for Uz, Initial residual = 0.00176969, Final residual = 7.26321e-05, No Iterations 1
DILUPBiCGStab:  Solving for h, Initial residual = 0.00125689, Final residual = 6.41655e-05, No Iterations 1
Min/max T:296.833 377.766
GAMG:  Solving for p_rgh, Initial residual = 0.0074453, Final residual = 3.75029e-05, No Iterations 3
GAMG:  Solving for p_rgh, Initial residual = 0.00120769, Final residual = 7.17391e-06, No Iterations 3
GAMG:  Solving for p_rgh, Initial residual = 0.000202649, Final residual = 1.46304e-06, No Iterations 3
time step continuity errors : sum local = 9.6539e-06, global = 5.75404e-07, cumulative = 5.75404e-07
ExecutionTime = 12.2447 s  ClockTime = 24 s

volFieldValue volAvgFinTemperature write:
    volAverage() of T = 374.633

volFieldValue volAvgHeaterTemperature write:
    volAverage() of T = 389.758

surfaceFieldValue averageTempHeaterFinInterface write:
    areaAverage(heater_to_fins) of T = 377.558

Region: fluid Courant Number mean: 1310.19 max: 102445
Region: fins Diffusion Number mean: 134.776 max: 167602
Region: heater Diffusion Number mean: 69.8575 max: 522.236
Time = 40s


Solving for solid region fins
GAMG:  Solving for e, Initial residual = 0.113519, Final residual = 0.00429941, No Iterations 1
Min/max T:373.033 379.887

Solving for solid region heater
GAMG:  Solving for e, Initial residual = 0.0525194, Final residual = 3.23106e-05, No Iterations 1
Min/max T:378.518 397.399

Solving for fluid region fluid
DILUPBiCGStab:  Solving for Ux, Initial residual = 0.00108248, Final residual = 4.55269e-05, No Iterations 1
DILUPBiCGStab:  Solving for Uy, Initial residual = 0.00281805, Final residual = 0.000118398, No Iterations 1
DILUPBiCGStab:  Solving for Uz, Initial residual = 0.00171601, Final residual = 7.0402e-05, No Iterations 1
DILUPBiCGStab:  Solving for h, Initial residual = 0.00123558, Final residual = 6.46303e-05, No Iterations 1
Min/max T:296.832 379.587
GAMG:  Solving for p_rgh, Initial residual = 0.00740478, Final residual = 3.94059e-05, No Iterations 3
GAMG:  Solving for p_rgh, Initial residual = 0.00125367, Final residual = 7.68216e-06, No Iterations 3
GAMG:  Solving for p_rgh, Initial residual = 0.000214347, Final residual = 1.6833e-06, No Iterations 3
time step continuity errors : sum local = 1.11329e-05, global = 5.79856e-07, cumulative = 5.79856e-07
ExecutionTime = 12.4274 s  ClockTime = 25 s

volFieldValue volAvgFinTemperature write:
    volAverage() of T = 376.367

volFieldValue volAvgHeaterTemperature write:
    volAverage() of T = 391.569

surfaceFieldValue averageTempHeaterFinInterface write:
    areaAverage(heater_to_fins) of T = 379.373

Region: fluid Courant Number mean: 1310.08 max: 101503
Region: fins Diffusion Number mean: 134.776 max: 167602
Region: heater Diffusion Number mean: 69.8575 max: 522.236
Time = 41s


Solving for solid region fins
GAMG:  Solving for e, Initial residual = 0.110279, Final residual = 0.00422237, No Iterations 1
Min/max T:374.712 381.693

Solving for solid region heater
GAMG:  Solving for e, Initial residual = 0.052008, Final residual = 3.2503e-05, No Iterations 1
Min/max T:380.302 399.194

Solving for fluid region fluid
DILUPBiCGStab:  Solving for Ux, Initial residual = 0.0010621, Final residual = 4.45934e-05, No Iterations 1
DILUPBiCGStab:  Solving for Uy, Initial residual = 0.00281561, Final residual = 0.000118296, No Iterations 1
DILUPBiCGStab:  Solving for Uz, Initial residual = 0.00166624, Final residual = 6.83487e-05, No Iterations 1
DILUPBiCGStab:  Solving for h, Initial residual = 0.00121586, Final residual = 6.51988e-05, No Iterations 1
Min/max T:296.83 381.392
GAMG:  Solving for p_rgh, Initial residual = 0.00734791, Final residual = 3.77207e-05, No Iterations 3
GAMG:  Solving for p_rgh, Initial residual = 0.00121193, Final residual = 7.14841e-06, No Iterations 3
GAMG:  Solving for p_rgh, Initial residual = 0.000203251, Final residual = 1.55493e-06, No Iterations 3
time step continuity errors : sum local = 1.03087e-05, global = 4.78339e-07, cumulative = 4.78339e-07
ExecutionTime = 12.6233 s  ClockTime = 25 s

volFieldValue volAvgFinTemperature write:
    volAverage() of T = 378.084

volFieldValue volAvgHeaterTemperature write:
    volAverage() of T = 393.364

surfaceFieldValue averageTempHeaterFinInterface write:
    areaAverage(heater_to_fins) of T = 381.172

Region: fluid Courant Number mean: 1309.97 max: 100564
Region: fins Diffusion Number mean: 134.776 max: 167602
Region: heater Diffusion Number mean: 69.8575 max: 522.236
Time = 42s


Solving for solid region fins
GAMG:  Solving for e, Initial residual = 0.107159, Final residual = 0.00413551, No Iterations 1
Min/max T:376.373 383.483

Solving for solid region heater
GAMG:  Solving for e, Initial residual = 0.0515027, Final residual = 3.25929e-05, No Iterations 1
Min/max T:382.062 400.973

Solving for fluid region fluid
DILUPBiCGStab:  Solving for Ux, Initial residual = 0.00104228, Final residual = 4.36664e-05, No Iterations 1
DILUPBiCGStab:  Solving for Uy, Initial residual = 0.0028156, Final residual = 0.000118336, No Iterations 1
DILUPBiCGStab:  Solving for Uz, Initial residual = 0.00161949, Final residual = 6.6428e-05, No Iterations 1
DILUPBiCGStab:  Solving for h, Initial residual = 0.00119617, Final residual = 6.56666e-05, No Iterations 1
Min/max T:296.829 383.181
GAMG:  Solving for p_rgh, Initial residual = 0.0074261, Final residual = 3.70601e-05, No Iterations 3
GAMG:  Solving for p_rgh, Initial residual = 0.00118068, Final residual = 7.06978e-06, No Iterations 3
GAMG:  Solving for p_rgh, Initial residual = 0.000197716, Final residual = 1.41257e-06, No Iterations 3
time step continuity errors : sum local = 9.38634e-06, global = 1.08113e-06, cumulative = 1.08113e-06
ExecutionTime = 13.0079 s  ClockTime = 26 s

volFieldValue volAvgFinTemperature write:
    volAverage() of T = 379.785

volFieldValue volAvgHeaterTemperature write:
    volAverage() of T = 395.142

surfaceFieldValue averageTempHeaterFinInterface write:
    areaAverage(heater_to_fins) of T = 382.955

Region: fluid Courant Number mean: 1309.86 max: 99645.6
Region: fins Diffusion Number mean: 134.776 max: 167602
Region: heater Diffusion Number mean: 69.8575 max: 522.236
Time = 43s


Solving for solid region fins
GAMG:  Solving for e, Initial residual = 0.104155, Final residual = 0.00404707, No Iterations 1
Min/max T:378.018 385.257

Solving for solid region heater
GAMG:  Solving for e, Initial residual = 0.0510021, Final residual = 3.26307e-05, No Iterations 1
Min/max T:383.797 402.737

Solving for fluid region fluid
DILUPBiCGStab:  Solving for Ux, Initial residual = 0.00102232, Final residual = 4.27537e-05, No Iterations 1
DILUPBiCGStab:  Solving for Uy, Initial residual = 0.00281207, Final residual = 0.000118143, No Iterations 1
DILUPBiCGStab:  Solving for Uz, Initial residual = 0.00157588, Final residual = 6.46405e-05, No Iterations 1
DILUPBiCGStab:  Solving for h, Initial residual = 0.00117711, Final residual = 6.59308e-05, No Iterations 1
Min/max T:296.827 384.953
GAMG:  Solving for p_rgh, Initial residual = 0.00740696, Final residual = 3.81883e-05, No Iterations 3
GAMG:  Solving for p_rgh, Initial residual = 0.00119387, Final residual = 7.13019e-06, No Iterations 3
GAMG:  Solving for p_rgh, Initial residual = 0.000198322, Final residual = 1.40309e-06, No Iterations 3
time step continuity errors : sum local = 9.34369e-06, global = 5.50828e-07, cumulative = 5.50828e-07
ExecutionTime = 13.5114 s  ClockTime = 26 s

volFieldValue volAvgFinTemperature write:
    volAverage() of T = 381.47

volFieldValue volAvgHeaterTemperature write:
    volAverage() of T = 396.905

surfaceFieldValue averageTempHeaterFinInterface write:
    areaAverage(heater_to_fins) of T = 384.722

Region: fluid Courant Number mean: 1309.76 max: 98749.4
Region: fins Diffusion Number mean: 134.776 max: 167602
Region: heater Diffusion Number mean: 69.8575 max: 522.236
Time = 44s


Solving for solid region fins
GAMG:  Solving for e, Initial residual = 0.101274, Final residual = 0.00396134, No Iterations 1
Min/max T:379.647 387.015

Solving for solid region heater
GAMG:  Solving for e, Initial residual = 0.0505054, Final residual = 3.26427e-05, No Iterations 1
Min/max T:385.517 404.484

Solving for fluid region fluid
DILUPBiCGStab:  Solving for Ux, Initial residual = 0.00100335, Final residual = 4.18838e-05, No Iterations 1
DILUPBiCGStab:  Solving for Uy, Initial residual = 0.00281921, Final residual = 0.000118366, No Iterations 1
DILUPBiCGStab:  Solving for Uz, Initial residual = 0.00153649, Final residual = 6.30784e-05, No Iterations 1
DILUPBiCGStab:  Solving for h, Initial residual = 0.00115838, Final residual = 6.60151e-05, No Iterations 1
Min/max T:296.826 386.71
GAMG:  Solving for p_rgh, Initial residual = 0.00754993, Final residual = 4.15581e-05, No Iterations 3
GAMG:  Solving for p_rgh, Initial residual = 0.00124382, Final residual = 7.77407e-06, No Iterations 3
GAMG:  Solving for p_rgh, Initial residual = 0.000208637, Final residual = 1.54191e-06, No Iterations 3
time step continuity errors : sum local = 1.02927e-05, global = 2.06894e-07, cumulative = 2.06894e-07
ExecutionTime = 13.9146 s  ClockTime = 27 s

volFieldValue volAvgFinTemperature write:
    volAverage() of T = 383.14

volFieldValue volAvgHeaterTemperature write:
    volAverage() of T = 398.652

surfaceFieldValue averageTempHeaterFinInterface write:
    areaAverage(heater_to_fins) of T = 386.472

Region: fluid Courant Number mean: 1309.65 max: 97870.4
Region: fins Diffusion Number mean: 134.776 max: 167602
Region: heater Diffusion Number mean: 69.8575 max: 522.236
Time = 45s


Solving for solid region fins
GAMG:  Solving for e, Initial residual = 0.0985129, Final residual = 0.00387606, No Iterations 1
Min/max T:381.26 388.757

Solving for solid region heater
GAMG:  Solving for e, Initial residual = 0.0500131, Final residual = 3.26149e-05, No Iterations 1
Min/max T:387.221 406.216

Solving for fluid region fluid
DILUPBiCGStab:  Solving for Ux, Initial residual = 0.000985367, Final residual = 4.10864e-05, No Iterations 1
DILUPBiCGStab:  Solving for Uy, Initial residual = 0.00283083, Final residual = 0.000119013, No Iterations 1
DILUPBiCGStab:  Solving for Uz, Initial residual = 0.00150051, Final residual = 6.16763e-05, No Iterations 1
DILUPBiCGStab:  Solving for h, Initial residual = 0.00114096, Final residual = 6.60263e-05, No Iterations 1
Min/max T:296.824 388.451
GAMG:  Solving for p_rgh, Initial residual = 0.00823257, Final residual = 5.12458e-05, No Iterations 3
GAMG:  Solving for p_rgh, Initial residual = 0.00139207, Final residual = 1.0031e-05, No Iterations 3
GAMG:  Solving for p_rgh, Initial residual = 0.000240631, Final residual = 2.01247e-06, No Iterations 3
[...]
DILUPBiCGStab:  Solving for Uy, Initial residual = 0.000235332, Final residual = 9.30932e-06, No Iterations 1
DILUPBiCGStab:  Solving for Uz, Initial residual = 9.29823e-05, Final residual = 3.65524e-06, No Iterations 1
DILUPBiCGStab:  Solving for h, Initial residual = 0.000544496, Final residual = 1.49542e-05, No Iterations 1
Min/max T:296.665 571.407
GAMG:  Solving for p_rgh, Initial residual = 0.00105894, Final residual = 4.6321e-06, No Iterations 3
GAMG:  Solving for p_rgh, Initial residual = 0.000201512, Final residual = 1.57095e-06, No Iterations 2
GAMG:  Solving for p_rgh, Initial residual = 2.77511e-05, Final residual = 2.30053e-07, No Iterations 3
time step continuity errors : sum local = 1.79023e-06, global = -5.3889e-07, cumulative = -5.3889e-07
ExecutionTime = 408.058 s  ClockTime = 758 s

volFieldValue volAvgFinTemperature write:
    volAverage() of T = 557.92

volFieldValue volAvgHeaterTemperature write:
    volAverage() of T = 582.17

surfaceFieldValue averageTempHeaterFinInterface write:
    areaAverage(heater_to_fins) of T = 570.426

Region: fluid Courant Number mean: 1302.76 max: 78752.8
Region: fins Diffusion Number mean: 134.776 max: 167602
Region: heater Diffusion Number mean: 69.8575 max: 522.236
Time = 1990s


Solving for solid region fins
GAMG:  Solving for e, Initial residual = 1.72115e-05, Final residual = 1.40159e-06, No Iterations 1
Min/max T:549.301 572.455

Solving for solid region heater
GAMG:  Solving for e, Initial residual = 2.1999e-05, Final residual = 2.95305e-08, No Iterations 1
Min/max T:565.765 588.113

Solving for fluid region fluid
DILUPBiCGStab:  Solving for Ux, Initial residual = 2.78802e-05, Final residual = 1.12954e-06, No Iterations 1
DILUPBiCGStab:  Solving for Uy, Initial residual = 0.000237754, Final residual = 9.48349e-06, No Iterations 1
DILUPBiCGStab:  Solving for Uz, Initial residual = 9.37364e-05, Final residual = 3.65422e-06, No Iterations 1
DILUPBiCGStab:  Solving for h, Initial residual = 0.000544714, Final residual = 1.49999e-05, No Iterations 1
Min/max T:296.665 571.408
GAMG:  Solving for p_rgh, Initial residual = 0.00115052, Final residual = 5.53193e-06, No Iterations 3
GAMG:  Solving for p_rgh, Initial residual = 0.000192589, Final residual = 1.69749e-06, No Iterations 2
GAMG:  Solving for p_rgh, Initial residual = 2.76773e-05, Final residual = 2.68595e-07, No Iterations 3
time step continuity errors : sum local = 2.09025e-06, global = -6.50827e-07, cumulative = -6.50827e-07
ExecutionTime = 408.105 s  ClockTime = 758 s

volFieldValue volAvgFinTemperature write:
    volAverage() of T = 557.921

volFieldValue volAvgHeaterTemperature write:
    volAverage() of T = 582.17

surfaceFieldValue averageTempHeaterFinInterface write:
    areaAverage(heater_to_fins) of T = 570.427

Region: fluid Courant Number mean: 1302.76 max: 78755
Region: fins Diffusion Number mean: 134.776 max: 167602
Region: heater Diffusion Number mean: 69.8575 max: 522.236
Time = 1991s


Solving for solid region fins
GAMG:  Solving for e, Initial residual = 1.701e-05, Final residual = 1.48956e-06, No Iterations 1
Min/max T:549.302 572.456

Solving for solid region heater
GAMG:  Solving for e, Initial residual = 2.15411e-05, Final residual = 3.23422e-08, No Iterations 1
Min/max T:565.766 588.114

Solving for fluid region fluid
DILUPBiCGStab:  Solving for Ux, Initial residual = 2.82511e-05, Final residual = 1.15064e-06, No Iterations 1
DILUPBiCGStab:  Solving for Uy, Initial residual = 0.00023968, Final residual = 9.64847e-06, No Iterations 1
DILUPBiCGStab:  Solving for Uz, Initial residual = 9.34223e-05, Final residual = 3.64228e-06, No Iterations 1
DILUPBiCGStab:  Solving for h, Initial residual = 0.00054472, Final residual = 1.50289e-05, No Iterations 1
Min/max T:296.665 571.408
GAMG:  Solving for p_rgh, Initial residual = 0.00121932, Final residual = 5.73075e-06, No Iterations 3
GAMG:  Solving for p_rgh, Initial residual = 0.000193366, Final residual = 1.8273e-06, No Iterations 2
GAMG:  Solving for p_rgh, Initial residual = 2.83659e-05, Final residual = 1.64402e-07, No Iterations 4
time step continuity errors : sum local = 1.27959e-06, global = -3.47456e-07, cumulative = -3.47456e-07
ExecutionTime = 408.152 s  ClockTime = 758 s

volFieldValue volAvgFinTemperature write:
    volAverage() of T = 557.922

volFieldValue volAvgHeaterTemperature write:
    volAverage() of T = 582.171

surfaceFieldValue averageTempHeaterFinInterface write:
    areaAverage(heater_to_fins) of T = 570.428

Region: fluid Courant Number mean: 1302.76 max: 78757.3
Region: fins Diffusion Number mean: 134.776 max: 167602
Region: heater Diffusion Number mean: 69.8575 max: 522.236
Time = 1992s


Solving for solid region fins
GAMG:  Solving for e, Initial residual = 1.67891e-05, Final residual = 1.55692e-06, No Iterations 1
Min/max T:549.303 572.457

Solving for solid region heater
GAMG:  Solving for e, Initial residual = 2.11037e-05, Final residual = 3.42713e-08, No Iterations 1
Min/max T:565.767 588.115

Solving for fluid region fluid
DILUPBiCGStab:  Solving for Ux, Initial residual = 2.85632e-05, Final residual = 1.16851e-06, No Iterations 1
DILUPBiCGStab:  Solving for Uy, Initial residual = 0.000241458, Final residual = 9.76225e-06, No Iterations 1
DILUPBiCGStab:  Solving for Uz, Initial residual = 9.32553e-05, Final residual = 3.64994e-06, No Iterations 1
DILUPBiCGStab:  Solving for h, Initial residual = 0.000544855, Final residual = 1.5041e-05, No Iterations 1
Min/max T:296.665 571.409
GAMG:  Solving for p_rgh, Initial residual = 0.00124731, Final residual = 5.91346e-06, No Iterations 3
GAMG:  Solving for p_rgh, Initial residual = 0.000195223, Final residual = 1.844e-06, No Iterations 2
GAMG:  Solving for p_rgh, Initial residual = 2.89282e-05, Final residual = 2.82499e-07, No Iterations 3
time step continuity errors : sum local = 2.19905e-06, global = -6.55669e-07, cumulative = -6.55669e-07
ExecutionTime = 408.199 s  ClockTime = 759 s

volFieldValue volAvgFinTemperature write:
    volAverage() of T = 557.923

volFieldValue volAvgHeaterTemperature write:
    volAverage() of T = 582.172

surfaceFieldValue averageTempHeaterFinInterface write:
    areaAverage(heater_to_fins) of T = 570.429

Region: fluid Courant Number mean: 1302.76 max: 78759.7
Region: fins Diffusion Number mean: 134.776 max: 167602
Region: heater Diffusion Number mean: 69.8575 max: 522.236
Time = 1993s


Solving for solid region fins
GAMG:  Solving for e, Initial residual = 1.65432e-05, Final residual = 1.59871e-06, No Iterations 1
Min/max T:549.303 572.457

Solving for solid region heater
GAMG:  Solving for e, Initial residual = 2.06835e-05, Final residual = 3.56095e-08, No Iterations 1
Min/max T:565.767 588.115

Solving for fluid region fluid
DILUPBiCGStab:  Solving for Ux, Initial residual = 2.88931e-05, Final residual = 1.18601e-06, No Iterations 1
DILUPBiCGStab:  Solving for Uy, Initial residual = 0.000243508, Final residual = 9.85634e-06, No Iterations 1
DILUPBiCGStab:  Solving for Uz, Initial residual = 9.3304e-05, Final residual = 3.67562e-06, No Iterations 1
DILUPBiCGStab:  Solving for h, Initial residual = 0.000545041, Final residual = 1.50416e-05, No Iterations 1
Min/max T:296.665 571.41
GAMG:  Solving for p_rgh, Initial residual = 0.00125444, Final residual = 6.16069e-06, No Iterations 3
GAMG:  Solving for p_rgh, Initial residual = 0.000200006, Final residual = 1.88862e-06, No Iterations 2
GAMG:  Solving for p_rgh, Initial residual = 3.01904e-05, Final residual = 1.69379e-07, No Iterations 4
time step continuity errors : sum local = 1.31859e-06, global = -3.80566e-07, cumulative = -3.80566e-07
ExecutionTime = 408.248 s  ClockTime = 759 s

volFieldValue volAvgFinTemperature write:
    volAverage() of T = 557.923

volFieldValue volAvgHeaterTemperature write:
    volAverage() of T = 582.173

surfaceFieldValue averageTempHeaterFinInterface write:
    areaAverage(heater_to_fins) of T = 570.429

Region: fluid Courant Number mean: 1302.76 max: 78762.2
Region: fins Diffusion Number mean: 134.776 max: 167602
Region: heater Diffusion Number mean: 69.8575 max: 522.236
Time = 1994s


Solving for solid region fins
GAMG:  Solving for e, Initial residual = 1.62897e-05, Final residual = 1.62076e-06, No Iterations 1
Min/max T:549.304 572.458

Solving for solid region heater
GAMG:  Solving for e, Initial residual = 2.02761e-05, Final residual = 3.65993e-08, No Iterations 1
Min/max T:565.768 588.116

Solving for fluid region fluid
DILUPBiCGStab:  Solving for Ux, Initial residual = 2.92005e-05, Final residual = 1.20108e-06, No Iterations 1
DILUPBiCGStab:  Solving for Uy, Initial residual = 0.000245538, Final residual = 9.93889e-06, No Iterations 1
DILUPBiCGStab:  Solving for Uz, Initial residual = 9.3512e-05, Final residual = 3.71102e-06, No Iterations 1
DILUPBiCGStab:  Solving for h, Initial residual = 0.000545186, Final residual = 1.50419e-05, No Iterations 1
Min/max T:296.665 571.411
GAMG:  Solving for p_rgh, Initial residual = 0.00124574, Final residual = 6.3427e-06, No Iterations 3
GAMG:  Solving for p_rgh, Initial residual = 0.000202276, Final residual = 1.89532e-06, No Iterations 2
GAMG:  Solving for p_rgh, Initial residual = 3.10354e-05, Final residual = 2.90707e-07, No Iterations 3
time step continuity errors : sum local = 2.26308e-06, global = -4.29242e-07, cumulative = -4.29242e-07
ExecutionTime = 408.296 s  ClockTime = 759 s

volFieldValue volAvgFinTemperature write:
    volAverage() of T = 557.924

volFieldValue volAvgHeaterTemperature write:
    volAverage() of T = 582.173

surfaceFieldValue averageTempHeaterFinInterface write:
    areaAverage(heater_to_fins) of T = 570.43

Region: fluid Courant Number mean: 1302.76 max: 78764.8
Region: fins Diffusion Number mean: 134.776 max: 167602
Region: heater Diffusion Number mean: 69.8575 max: 522.236
Time = 1995s


Solving for solid region fins
GAMG:  Solving for e, Initial residual = 1.60295e-05, Final residual = 8.7833e-07, No Iterations 2
Min/max T:549.304 572.459

Solving for solid region heater
GAMG:  Solving for e, Initial residual = 1.97128e-05, Final residual = 9.15874e-08, No Iterations 1
Min/max T:565.769 588.117

Solving for fluid region fluid
DILUPBiCGStab:  Solving for Ux, Initial residual = 2.95372e-05, Final residual = 1.21673e-06, No Iterations 1
DILUPBiCGStab:  Solving for Uy, Initial residual = 0.000248022, Final residual = 1.00273e-05, No Iterations 1
DILUPBiCGStab:  Solving for Uz, Initial residual = 9.36618e-05, Final residual = 3.747e-06, No Iterations 1
DILUPBiCGStab:  Solving for h, Initial residual = 0.000545259, Final residual = 1.50354e-05, No Iterations 1
Min/max T:296.665 571.412
GAMG:  Solving for p_rgh, Initial residual = 0.00123649, Final residual = 6.41905e-06, No Iterations 3
GAMG:  Solving for p_rgh, Initial residual = 0.000204272, Final residual = 1.92469e-06, No Iterations 2
GAMG:  Solving for p_rgh, Initial residual = 3.15025e-05, Final residual = 3.06332e-07, No Iterations 3
time step continuity errors : sum local = 2.38453e-06, global = -6.34683e-07, cumulative = -6.34683e-07
ExecutionTime = 408.348 s  ClockTime = 759 s

volFieldValue volAvgFinTemperature write:
    volAverage() of T = 557.924

volFieldValue volAvgHeaterTemperature write:
    volAverage() of T = 582.174

surfaceFieldValue averageTempHeaterFinInterface write:
    areaAverage(heater_to_fins) of T = 570.431

Region: fluid Courant Number mean: 1302.76 max: 78767.5
Region: fins Diffusion Number mean: 134.776 max: 167602
Region: heater Diffusion Number mean: 69.8575 max: 522.236
Time = 1996s


Solving for solid region fins
GAMG:  Solving for e, Initial residual = 1.92167e-05, Final residual = 8.3326e-07, No Iterations 1
Min/max T:549.305 572.46

Solving for solid region heater
GAMG:  Solving for e, Initial residual = 1.95736e-05, Final residual = 5.64153e-08, No Iterations 1
Min/max T:565.769 588.118

Solving for fluid region fluid
DILUPBiCGStab:  Solving for Ux, Initial residual = 2.98374e-05, Final residual = 1.23042e-06, No Iterations 1
DILUPBiCGStab:  Solving for Uy, Initial residual = 0.000250609, Final residual = 1.01117e-05, No Iterations 1
DILUPBiCGStab:  Solving for Uz, Initial residual = 9.39985e-05, Final residual = 3.78935e-06, No Iterations 1
DILUPBiCGStab:  Solving for h, Initial residual = 0.000545257, Final residual = 1.50147e-05, No Iterations 1
Min/max T:296.665 571.412
GAMG:  Solving for p_rgh, Initial residual = 0.00123243, Final residual = 6.36472e-06, No Iterations 3
GAMG:  Solving for p_rgh, Initial residual = 0.000204532, Final residual = 1.90116e-06, No Iterations 2
GAMG:  Solving for p_rgh, Initial residual = 3.12401e-05, Final residual = 2.99917e-07, No Iterations 3
time step continuity errors : sum local = 2.33452e-06, global = -5.31811e-07, cumulative = -5.31811e-07
ExecutionTime = 408.401 s  ClockTime = 759 s

volFieldValue volAvgFinTemperature write:
    volAverage() of T = 557.925

volFieldValue volAvgHeaterTemperature write:
    volAverage() of T = 582.175

surfaceFieldValue averageTempHeaterFinInterface write:
    areaAverage(heater_to_fins) of T = 570.432

Region: fluid Courant Number mean: 1302.77 max: 78770.3
Region: fins Diffusion Number mean: 134.776 max: 167602
Region: heater Diffusion Number mean: 69.8575 max: 522.236
Time = 1997s


Solving for solid region fins
GAMG:  Solving for e, Initial residual = 1.43622e-05, Final residual = 9.42893e-07, No Iterations 1
Min/max T:549.305 572.461

Solving for solid region heater
GAMG:  Solving for e, Initial residual = 1.8998e-05, Final residual = 4.07205e-08, No Iterations 1
Min/max T:565.77 588.118

Solving for fluid region fluid
DILUPBiCGStab:  Solving for Ux, Initial residual = 3.01753e-05, Final residual = 1.24322e-06, No Iterations 1
DILUPBiCGStab:  Solving for Uy, Initial residual = 0.000253465, Final residual = 1.01977e-05, No Iterations 1
DILUPBiCGStab:  Solving for Uz, Initial residual = 9.45356e-05, Final residual = 3.83283e-06, No Iterations 1
DILUPBiCGStab:  Solving for h, Initial residual = 0.000545171, Final residual = 1.49845e-05, No Iterations 1
Min/max T:296.665 571.413
GAMG:  Solving for p_rgh, Initial residual = 0.00121693, Final residual = 6.39997e-06, No Iterations 3
GAMG:  Solving for p_rgh, Initial residual = 0.000202655, Final residual = 1.8569e-06, No Iterations 2
GAMG:  Solving for p_rgh, Initial residual = 3.03316e-05, Final residual = 2.77292e-07, No Iterations 3
time step continuity errors : sum local = 2.15853e-06, global = -1.86114e-07, cumulative = -1.86114e-07
ExecutionTime = 408.455 s  ClockTime = 759 s

volFieldValue volAvgFinTemperature write:
    volAverage() of T = 557.926

volFieldValue volAvgHeaterTemperature write:
    volAverage() of T = 582.176

surfaceFieldValue averageTempHeaterFinInterface write:
    areaAverage(heater_to_fins) of T = 570.432

Region: fluid Courant Number mean: 1302.77 max: 78773.3
Region: fins Diffusion Number mean: 134.776 max: 167602
Region: heater Diffusion Number mean: 69.8575 max: 522.236
Time = 1998s


Solving for solid region fins
GAMG:  Solving for e, Initial residual = 1.4187e-05, Final residual = 1.08413e-06, No Iterations 1
Min/max T:549.306 572.461

Solving for solid region heater
GAMG:  Solving for e, Initial residual = 1.85959e-05, Final residual = 3.4934e-08, No Iterations 1
Min/max T:565.771 588.119

Solving for fluid region fluid
DILUPBiCGStab:  Solving for Ux, Initial residual = 3.05459e-05, Final residual = 1.25548e-06, No Iterations 1
DILUPBiCGStab:  Solving for Uy, Initial residual = 0.000256155, Final residual = 1.02649e-05, No Iterations 1
DILUPBiCGStab:  Solving for Uz, Initial residual = 9.52346e-05, Final residual = 3.87789e-06, No Iterations 1
DILUPBiCGStab:  Solving for h, Initial residual = 0.000544986, Final residual = 1.49521e-05, No Iterations 1
Min/max T:296.665 571.414
GAMG:  Solving for p_rgh, Initial residual = 0.00121271, Final residual = 6.55034e-06, No Iterations 3
GAMG:  Solving for p_rgh, Initial residual = 0.000205561, Final residual = 1.88733e-06, No Iterations 2
GAMG:  Solving for p_rgh, Initial residual = 3.06714e-05, Final residual = 2.85475e-07, No Iterations 3
time step continuity errors : sum local = 2.22229e-06, global = 8.77944e-08, cumulative = 8.77944e-08
ExecutionTime = 408.507 s  ClockTime = 759 s

volFieldValue volAvgFinTemperature write:
    volAverage() of T = 557.926

volFieldValue volAvgHeaterTemperature write:
    volAverage() of T = 582.176

surfaceFieldValue averageTempHeaterFinInterface write:
    areaAverage(heater_to_fins) of T = 570.433

Region: fluid Courant Number mean: 1302.77 max: 78776.5
Region: fins Diffusion Number mean: 134.776 max: 167602
Region: heater Diffusion Number mean: 69.8575 max: 522.236
Time = 1999s


Solving for solid region fins
GAMG:  Solving for e, Initial residual = 1.41589e-05, Final residual = 1.22462e-06, No Iterations 1
Min/max T:549.306 572.462

Solving for solid region heater
GAMG:  Solving for e, Initial residual = 1.81923e-05, Final residual = 3.32092e-08, No Iterations 1
Min/max T:565.771 588.12

Solving for fluid region fluid
DILUPBiCGStab:  Solving for Ux, Initial residual = 3.08967e-05, Final residual = 1.26721e-06, No Iterations 1
DILUPBiCGStab:  Solving for Uy, Initial residual = 0.000259056, Final residual = 1.03388e-05, No Iterations 1
DILUPBiCGStab:  Solving for Uz, Initial residual = 9.61246e-05, Final residual = 3.92461e-06, No Iterations 1
DILUPBiCGStab:  Solving for h, Initial residual = 0.000544659, Final residual = 1.49166e-05, No Iterations 1
Min/max T:296.665 571.414
GAMG:  Solving for p_rgh, Initial residual = 0.00120481, Final residual = 6.30123e-06, No Iterations 3
GAMG:  Solving for p_rgh, Initial residual = 0.000201979, Final residual = 1.86587e-06, No Iterations 2
GAMG:  Solving for p_rgh, Initial residual = 3.01269e-05, Final residual = 2.83949e-07, No Iterations 3
time step continuity errors : sum local = 2.21029e-06, global = -8.90281e-08, cumulative = -8.90281e-08
ExecutionTime = 408.557 s  ClockTime = 760 s

volFieldValue volAvgFinTemperature write:
    volAverage() of T = 557.927

volFieldValue volAvgHeaterTemperature write:
    volAverage() of T = 582.177

surfaceFieldValue averageTempHeaterFinInterface write:
    areaAverage(heater_to_fins) of T = 570.434

Region: fluid Courant Number mean: 1302.77 max: 78780
Region: fins Diffusion Number mean: 134.776 max: 167602
Region: heater Diffusion Number mean: 69.8575 max: 522.236
Time = 2000s


Solving for solid region fins
GAMG:  Solving for e, Initial residual = 1.4126e-05, Final residual = 1.32204e-06, No Iterations 1
Min/max T:549.307 572.463

Solving for solid region heater
GAMG:  Solving for e, Initial residual = 1.78013e-05, Final residual = 3.28677e-08, No Iterations 1
Min/max T:565.772 588.12

Solving for fluid region fluid
DILUPBiCGStab:  Solving for Ux, Initial residual = 3.12567e-05, Final residual = 1.27962e-06, No Iterations 1
DILUPBiCGStab:  Solving for Uy, Initial residual = 0.000261985, Final residual = 1.04189e-05, No Iterations 1
DILUPBiCGStab:  Solving for Uz, Initial residual = 9.70149e-05, Final residual = 3.96914e-06, No Iterations 1
DILUPBiCGStab:  Solving for h, Initial residual = 0.000544404, Final residual = 1.48848e-05, No Iterations 1
Min/max T:296.665 571.415
GAMG:  Solving for p_rgh, Initial residual = 0.00120145, Final residual = 6.21555e-06, No Iterations 3
GAMG:  Solving for p_rgh, Initial residual = 0.000201412, Final residual = 1.87225e-06, No Iterations 2
GAMG:  Solving for p_rgh, Initial residual = 2.9808e-05, Final residual = 2.82695e-07, No Iterations 3
time step continuity errors : sum local = 2.20033e-06, global = -2.54199e-07, cumulative = -2.54199e-07
ExecutionTime = 408.644 s  ClockTime = 760 s

volFieldValue volAvgFinTemperature write:
    volAverage() of T = 557.928

volFieldValue volAvgHeaterTemperature write:
    volAverage() of T = 582.178

surfaceFieldValue averageTempHeaterFinInterface write:
    areaAverage(heater_to_fins) of T = 570.434

End

