/*---------------------------------------------------------------------------*\
  =========                 |
  \\      /  F ield         | OpenFOAM: The Open Source CFD Toolbox
   \\    /   O peration     | Website:  https://openfoam.org
    \\  /    A nd           | Version:  10
     \\/     M anipulation  |
\*---------------------------------------------------------------------------*/
Build  : 10-c4cf895ad8fa
Exec   : chtMultiRegionFoam
Date   : Nov 01 2023
Time   : 09:05:14
Host   : "alexesn"
PID    : 7348
I/O    : uncollated
Case   : /mnt/c/Users/sasch/OneDrive/Desktop/MEPhI/Project_practice/FOAM_project/heatExchanger/all_auto/case_10_0
nProcs : 1
sigFpe : Enabling floating point exception trapping (FOAM_SIGFPE).
fileModificationChecking : Monitoring run-time modified files using timeStampMaster (fileModificationSkew 10)
allowSystemOperations : Allowing user-supplied system call operations

// * * * * * * * * * * * * * * * * * * * * * * * * * * * * * * * * * * * * * //
Create time

Create fluid mesh for region fluid for time = 0

Create solid mesh for region fins for time = 0

Create solid mesh for region heater for time = 0


PIMPLE: Region fluid
PIMPLE: No convergence criteria found


PIMPLE: Region fins
PIMPLE: No convergence criteria found


PIMPLE: Region heater
PIMPLE: No convergence criteria found


PIMPLE: Operating solver in steady-state mode with 1 outer corrector
PIMPLE: Operating solver in SIMPLE mode


*** Reading fluid mesh thermophysical properties for region fluid

    Adding to thermoFluid

Selecting thermodynamics package 
{
    type            heRhoThermo;
    mixture         pureMixture;
    transport       const;
    thermo          hConst;
    equationOfState rhoConst;
    specie          specie;
    energy          sensibleEnthalpy;
}

    Adding to rhoFluid

    Adding to UFluid

    Adding to phiFluid

    Adding to gFluid

    Adding to hRefFluid

    Adding to pRefFluid

    Adding to ghFluid

    Adding to ghfFluid

    Adding to turbulenceFluid

Selecting turbulence model type laminar
Selecting laminar stress model Stokes
    Adding to thermophysicalTransport

Selecting thermophysical transport type laminar
Selecting default laminar thermophysical transport model unityLewisFourier
    Adding to reactionFluid

Combustion model not active: combustionProperties not found
Selecting combustion model none
    Adding to KFluid

    Adding to dpdtFluid

    Adding to fieldsFluid

    Adding MRF

No MRF models present

    Adding fvModelsFluid

    Adding fvConstraintsFluid

Creating fvConstraints from "system/fvConstraints"

Selecting finite volume constraint type limitTemperature
    Name: limitT
    - selecting all cells
    - selected 10225 cell(s) with volume 0.00149667
*** Reading solid mesh thermophysical properties for region fins

    Adding to thermoSolid

Selecting thermodynamics package 
{
    type            heSolidThermo;
    mixture         pureMixture;
    transport       constIsoSolid;
    thermo          eConst;
    equationOfState rhoConst;
    specie          specie;
    energy          sensibleInternalEnergy;
}

    Adding to fvModelsSolid

    Adding fvConstraintsSolid

*** Reading solid mesh thermophysical properties for region heater

    Adding to thermoSolid

Selecting thermodynamics package 
{
    type            heSolidThermo;
    mixture         pureMixture;
    transport       constIsoSolid;
    thermo          eConst;
    equationOfState rhoConst;
    specie          specie;
    energy          sensibleInternalEnergy;
}

    Adding to fvModelsSolid

Creating fvModels from "constant/fvModels"

Selecting finite volume model type heatSource
    Name: energySource
    - selecting all cells
    - selected 617 cell(s) with volume 1e-06
    Adding fvConstraintsSolid

Region: fluid Courant Number mean: 1306.66 max: 84390.5
Region: fins Diffusion Number mean: 117.318 max: 126097
Region: heater Diffusion Number mean: 71.7954 max: 522.217








surfaceFieldValue averageTempHeaterFinInterface:
    total faces  = 56
    total area   = 0.0001


volFieldValue volAvgFinTemperature write:
    volAverage() of T = 296.9

volFieldValue volAvgHeaterTemperature write:
    volAverage() of T = 296.9

surfaceFieldValue averageTempHeaterFinInterface write:
    areaAverage(heater_to_fins) of T = 296.9

Region: fluid Courant Number mean: 1306.66 max: 84390.5
Region: fins Diffusion Number mean: 117.318 max: 126097
Region: heater Diffusion Number mean: 71.7954 max: 522.217
Time = 1s


Solving for solid region fins
GAMG:  Solving for e, Initial residual = 0.981346, Final residual = 0.0430365, No Iterations 1
Min/max T:296.9 296.9

Solving for solid region heater
GAMG:  Solving for e, Initial residual = 1, Final residual = 0.0584877, No Iterations 3
Min/max T:296.9 314.368

Solving for fluid region fluid
DILUPBiCGStab:  Solving for Ux, Initial residual = 1, Final residual = 0.0233109, No Iterations 1
DILUPBiCGStab:  Solving for Uy, Initial residual = 1, Final residual = 0.0316933, No Iterations 1
DILUPBiCGStab:  Solving for Uz, Initial residual = 1, Final residual = 0.0279414, No Iterations 1
DILUPBiCGStab:  Solving for h, Initial residual = 1, Final residual = 0.0653572, No Iterations 1
Min/max T:295.597 297.759
GAMG:  Solving for p_rgh, Initial residual = 1, Final residual = 0.00690589, No Iterations 7
GAMG:  Solving for p_rgh, Initial residual = 0.500759, Final residual = 0.00280027, No Iterations 2
GAMG:  Solving for p_rgh, Initial residual = 0.0433246, Final residual = 0.00015406, No Iterations 3
time step continuity errors : sum local = 0.0061916, global = -0.00198854, cumulative = -0.00198854
ExecutionTime = 4.82874 s  ClockTime = 11 s

volFieldValue volAvgFinTemperature write:
    volAverage() of T = 296.9

volFieldValue volAvgHeaterTemperature write:
    volAverage() of T = 308.765

surfaceFieldValue averageTempHeaterFinInterface write:
    areaAverage(heater_to_fins) of T = 296.9

Region: fluid Courant Number mean: 1309.27 max: 77239.5
Region: fins Diffusion Number mean: 117.318 max: 126097
Region: heater Diffusion Number mean: 71.7954 max: 522.217
Time = 2s


Solving for solid region fins
GAMG:  Solving for e, Initial residual = 1, Final residual = 0.0358922, No Iterations 1
Min/max T:296.899 299.589

Solving for solid region heater
GAMG:  Solving for e, Initial residual = 0.243898, Final residual = 0.006494, No Iterations 1
Min/max T:298.79 316.761

Solving for fluid region fluid
DILUPBiCGStab:  Solving for Ux, Initial residual = 0.250176, Final residual = 0.0109579, No Iterations 1
DILUPBiCGStab:  Solving for Uy, Initial residual = 0.36916, Final residual = 0.0156707, No Iterations 1
DILUPBiCGStab:  Solving for Uz, Initial residual = 0.412135, Final residual = 0.0177549, No Iterations 1
DILUPBiCGStab:  Solving for h, Initial residual = 0.206611, Final residual = 0.0157262, No Iterations 1
Min/max T:293.391 299.355
GAMG:  Solving for p_rgh, Initial residual = 0.25269, Final residual = 0.00152687, No Iterations 6
GAMG:  Solving for p_rgh, Initial residual = 0.714887, Final residual = 0.00425384, No Iterations 2
GAMG:  Solving for p_rgh, Initial residual = 0.124229, Final residual = 0.000675458, No Iterations 3
time step continuity errors : sum local = 0.0144619, global = 0.00519118, cumulative = 0.00519118
ExecutionTime = 5.00039 s  ClockTime = 12 s

volFieldValue volAvgFinTemperature write:
    volAverage() of T = 299.174

volFieldValue volAvgHeaterTemperature write:
    volAverage() of T = 311.22

surfaceFieldValue averageTempHeaterFinInterface write:
    areaAverage(heater_to_fins) of T = 299.214

Region: fluid Courant Number mean: 1309.01 max: 77733.9
Region: fins Diffusion Number mean: 117.318 max: 126097
Region: heater Diffusion Number mean: 71.7954 max: 522.217
Time = 3s


Solving for solid region fins
GAMG:  Solving for e, Initial residual = 0.609554, Final residual = 0.0119352, No Iterations 1
Min/max T:299.066 301.858

Solving for solid region heater
GAMG:  Solving for e, Initial residual = 0.088191, Final residual = 0.00247312, No Iterations 1
Min/max T:301.07 319.45

Solving for fluid region fluid
DILUPBiCGStab:  Solving for Ux, Initial residual = 0.10341, Final residual = 0.00454355, No Iterations 1
DILUPBiCGStab:  Solving for Uy, Initial residual = 0.26552, Final residual = 0.0109988, No Iterations 1
DILUPBiCGStab:  Solving for Uz, Initial residual = 0.394985, Final residual = 0.0169671, No Iterations 1
DILUPBiCGStab:  Solving for h, Initial residual = 0.109687, Final residual = 0.00878507, No Iterations 1
Min/max T:296.084 301.689
GAMG:  Solving for p_rgh, Initial residual = 0.201969, Final residual = 0.00122488, No Iterations 6
GAMG:  Solving for p_rgh, Initial residual = 0.695083, Final residual = 0.00399341, No Iterations 2
GAMG:  Solving for p_rgh, Initial residual = 0.116551, Final residual = 0.00115592, No Iterations 2
time step continuity errors : sum local = 0.0103898, global = -0.00369149, cumulative = -0.00369149
ExecutionTime = 5.14887 s  ClockTime = 12 s

volFieldValue volAvgFinTemperature write:
    volAverage() of T = 301.433

volFieldValue volAvgHeaterTemperature write:
    volAverage() of T = 313.79

surfaceFieldValue averageTempHeaterFinInterface write:
    areaAverage(heater_to_fins) of T = 301.508

Region: fluid Courant Number mean: 1308.54 max: 74556.6
Region: fins Diffusion Number mean: 117.318 max: 126097
Region: heater Diffusion Number mean: 71.7954 max: 522.217
Time = 4s


Solving for solid region fins
GAMG:  Solving for e, Initial residual = 0.55264, Final residual = 0.0104978, No Iterations 1
Min/max T:301.293 304.189

Solving for solid region heater
GAMG:  Solving for e, Initial residual = 0.0782689, Final residual = 0.00144872, No Iterations 1
Min/max T:303.349 321.962

Solving for fluid region fluid
DILUPBiCGStab:  Solving for Ux, Initial residual = 0.0415832, Final residual = 0.00182469, No Iterations 1
DILUPBiCGStab:  Solving for Uy, Initial residual = 0.0817563, Final residual = 0.00346236, No Iterations 1
DILUPBiCGStab:  Solving for Uz, Initial residual = 0.109242, Final residual = 0.00474479, No Iterations 1
DILUPBiCGStab:  Solving for h, Initial residual = 0.0399249, Final residual = 0.00343334, No Iterations 1
Min/max T:296.117 304.001
GAMG:  Solving for p_rgh, Initial residual = 0.170457, Final residual = 0.00100219, No Iterations 6
GAMG:  Solving for p_rgh, Initial residual = 0.406208, Final residual = 0.00229761, No Iterations 2
GAMG:  Solving for p_rgh, Initial residual = 0.0575132, Final residual = 0.000568388, No Iterations 2
time step continuity errors : sum local = 0.00418322, global = 0.0014077, cumulative = 0.0014077
ExecutionTime = 5.41088 s  ClockTime = 12 s

volFieldValue volAvgFinTemperature write:
    volAverage() of T = 303.69

volFieldValue volAvgHeaterTemperature write:
    volAverage() of T = 316.23

surfaceFieldValue averageTempHeaterFinInterface write:
    areaAverage(heater_to_fins) of T = 303.814

Region: fluid Courant Number mean: 1308.43 max: 73089.1
Region: fins Diffusion Number mean: 117.318 max: 126097
Region: heater Diffusion Number mean: 71.7954 max: 522.217
Time = 5s


Solving for solid region fins
GAMG:  Solving for e, Initial residual = 0.519407, Final residual = 0.0109927, No Iterations 1
Min/max T:303.559 306.502

Solving for solid region heater
GAMG:  Solving for e, Initial residual = 0.0739928, Final residual = 0.000888897, No Iterations 1
Min/max T:305.63 324.395

Solving for fluid region fluid
DILUPBiCGStab:  Solving for Ux, Initial residual = 0.0175142, Final residual = 0.000752651, No Iterations 1
DILUPBiCGStab:  Solving for Uy, Initial residual = 0.0396818, Final residual = 0.00152311, No Iterations 1
DILUPBiCGStab:  Solving for Uz, Initial residual = 0.0513976, Final residual = 0.00219286, No Iterations 1
DILUPBiCGStab:  Solving for h, Initial residual = 0.0224315, Final residual = 0.0020703, No Iterations 1
Min/max T:296.799 306.308
GAMG:  Solving for p_rgh, Initial residual = 0.107735, Final residual = 0.00095939, No Iterations 5
GAMG:  Solving for p_rgh, Initial residual = 0.241096, Final residual = 0.00140431, No Iterations 2
GAMG:  Solving for p_rgh, Initial residual = 0.03147, Final residual = 0.000183966, No Iterations 3
time step continuity errors : sum local = 0.00100388, global = -0.00028353, cumulative = -0.00028353
ExecutionTime = 5.67143 s  ClockTime = 13 s

volFieldValue volAvgFinTemperature write:
    volAverage() of T = 305.94

volFieldValue volAvgHeaterTemperature write:
    volAverage() of T = 318.614

surfaceFieldValue averageTempHeaterFinInterface write:
    areaAverage(heater_to_fins) of T = 306.12

Region: fluid Courant Number mean: 1308.16 max: 71557.7
Region: fins Diffusion Number mean: 117.318 max: 126097
Region: heater Diffusion Number mean: 71.7954 max: 522.217
Time = 6s


Solving for solid region fins
GAMG:  Solving for e, Initial residual = 0.494389, Final residual = 0.0111916, No Iterations 1
Min/max T:305.79 308.802

Solving for solid region heater
GAMG:  Solving for e, Initial residual = 0.0722408, Final residual = 0.000552435, No Iterations 1
Min/max T:307.905 326.766

Solving for fluid region fluid
DILUPBiCGStab:  Solving for Ux, Initial residual = 0.00859493, Final residual = 0.000373144, No Iterations 1
DILUPBiCGStab:  Solving for Uy, Initial residual = 0.0193574, Final residual = 0.000755683, No Iterations 1
DILUPBiCGStab:  Solving for Uz, Initial residual = 0.0254789, Final residual = 0.00112866, No Iterations 1
DILUPBiCGStab:  Solving for h, Initial residual = 0.0157617, Final residual = 0.001379, No Iterations 1
Min/max T:296.828 308.601
GAMG:  Solving for p_rgh, Initial residual = 0.0682283, Final residual = 0.000521394, No Iterations 5
GAMG:  Solving for p_rgh, Initial residual = 0.0934388, Final residual = 0.000531092, No Iterations 2
GAMG:  Solving for p_rgh, Initial residual = 0.0117788, Final residual = 5.46482e-05, No Iterations 3
time step continuity errors : sum local = 0.000321673, global = 3.38707e-05, cumulative = 3.38707e-05
ExecutionTime = 5.8425 s  ClockTime = 13 s

volFieldValue volAvgFinTemperature write:
    volAverage() of T = 308.179

volFieldValue volAvgHeaterTemperature write:
    volAverage() of T = 320.956

surfaceFieldValue averageTempHeaterFinInterface write:
    areaAverage(heater_to_fins) of T = 308.417

Region: fluid Courant Number mean: 1307.96 max: 70410.5
Region: fins Diffusion Number mean: 117.318 max: 126097
Region: heater Diffusion Number mean: 71.7954 max: 522.217
Time = 7s


Solving for solid region fins
GAMG:  Solving for e, Initial residual = 0.471647, Final residual = 0.0112942, No Iterations 1
Min/max T:307.993 311.085

Solving for solid region heater
GAMG:  Solving for e, Initial residual = 0.0709, Final residual = 0.000345592, No Iterations 1
Min/max T:310.17 329.095

Solving for fluid region fluid
DILUPBiCGStab:  Solving for Ux, Initial residual = 0.00468714, Final residual = 0.000188201, No Iterations 1
DILUPBiCGStab:  Solving for Uy, Initial residual = 0.0118467, Final residual = 0.000370552, No Iterations 1
DILUPBiCGStab:  Solving for Uz, Initial residual = 0.012896, Final residual = 0.000491724, No Iterations 1
DILUPBiCGStab:  Solving for h, Initial residual = 0.0120851, Final residual = 0.00099572, No Iterations 1
Min/max T:296.856 310.877
GAMG:  Solving for p_rgh, Initial residual = 0.0408233, Final residual = 0.000222849, No Iterations 5
GAMG:  Solving for p_rgh, Initial residual = 0.0422318, Final residual = 0.00024222, No Iterations 2
GAMG:  Solving for p_rgh, Initial residual = 0.00529438, Final residual = 2.41653e-05, No Iterations 3
time step continuity errors : sum local = 0.00013408, global = 2.36873e-05, cumulative = 2.36873e-05
ExecutionTime = 6.02993 s  ClockTime = 13 s

volFieldValue volAvgFinTemperature write:
    volAverage() of T = 310.402

volFieldValue volAvgHeaterTemperature write:
    volAverage() of T = 323.266

surfaceFieldValue averageTempHeaterFinInterface write:
    areaAverage(heater_to_fins) of T = 310.702

Region: fluid Courant Number mean: 1307.77 max: 69349.4
Region: fins Diffusion Number mean: 117.318 max: 126097
Region: heater Diffusion Number mean: 71.7954 max: 522.217
Time = 8s


Solving for solid region fins
GAMG:  Solving for e, Initial residual = 0.450169, Final residual = 0.0111863, No Iterations 1
Min/max T:310.184 313.351

Solving for solid region heater
GAMG:  Solving for e, Initial residual = 0.0698976, Final residual = 0.000217685, No Iterations 1
Min/max T:312.423 331.39

Solving for fluid region fluid
DILUPBiCGStab:  Solving for Ux, Initial residual = 0.00371205, Final residual = 0.000158965, No Iterations 1
DILUPBiCGStab:  Solving for Uy, Initial residual = 0.00985544, Final residual = 0.000346716, No Iterations 1
DILUPBiCGStab:  Solving for Uz, Initial residual = 0.0121363, Final residual = 0.000513055, No Iterations 1
DILUPBiCGStab:  Solving for h, Initial residual = 0.00982269, Final residual = 0.000776932, No Iterations 1
Min/max T:296.855 313.136
GAMG:  Solving for p_rgh, Initial residual = 0.030378, Final residual = 0.000254095, No Iterations 4
GAMG:  Solving for p_rgh, Initial residual = 0.0164399, Final residual = 0.000122448, No Iterations 2
GAMG:  Solving for p_rgh, Initial residual = 0.00214724, Final residual = 1.67514e-05, No Iterations 3
time step continuity errors : sum local = 9.57152e-05, global = -2.28105e-05, cumulative = -2.28105e-05
ExecutionTime = 6.28031 s  ClockTime = 14 s

volFieldValue volAvgFinTemperature write:
    volAverage() of T = 312.61

volFieldValue volAvgHeaterTemperature write:
    volAverage() of T = 325.55

surfaceFieldValue averageTempHeaterFinInterface write:
    areaAverage(heater_to_fins) of T = 312.973

Region: fluid Courant Number mean: 1307.6 max: 68364.1
Region: fins Diffusion Number mean: 117.318 max: 126097
Region: heater Diffusion Number mean: 71.7954 max: 522.217
Time = 9s


Solving for solid region fins
GAMG:  Solving for e, Initial residual = 0.429633, Final residual = 0.0109621, No Iterations 1
Min/max T:312.361 315.599

Solving for solid region heater
GAMG:  Solving for e, Initial residual = 0.0690788, Final residual = 0.0001386, No Iterations 1
Min/max T:314.663 333.659

Solving for fluid region fluid
DILUPBiCGStab:  Solving for Ux, Initial residual = 0.00315702, Final residual = 0.00013449, No Iterations 1
DILUPBiCGStab:  Solving for Uy, Initial residual = 0.00799428, Final residual = 0.000280911, No Iterations 1
DILUPBiCGStab:  Solving for Uz, Initial residual = 0.00912221, Final residual = 0.000375219, No Iterations 1
DILUPBiCGStab:  Solving for h, Initial residual = 0.00830517, Final residual = 0.000633617, No Iterations 1
Min/max T:296.858 315.379
GAMG:  Solving for p_rgh, Initial residual = 0.0238393, Final residual = 0.000120814, No Iterations 4
GAMG:  Solving for p_rgh, Initial residual = 0.00814576, Final residual = 6.12727e-05, No Iterations 2
GAMG:  Solving for p_rgh, Initial residual = 0.00107425, Final residual = 8.84046e-06, No Iterations 3
time step continuity errors : sum local = 4.99109e-05, global = 3.12874e-06, cumulative = 3.12874e-06
ExecutionTime = 6.50151 s  ClockTime = 14 s

volFieldValue volAvgFinTemperature write:
    volAverage() of T = 314.802

volFieldValue volAvgHeaterTemperature write:
    volAverage() of T = 327.813

surfaceFieldValue averageTempHeaterFinInterface write:
    areaAverage(heater_to_fins) of T = 315.229

Region: fluid Courant Number mean: 1307.43 max: 67402.8
Region: fins Diffusion Number mean: 117.318 max: 126097
Region: heater Diffusion Number mean: 71.7954 max: 522.217
Time = 10s


Solving for solid region fins
GAMG:  Solving for e, Initial residual = 0.409891, Final residual = 0.0106487, No Iterations 1
Min/max T:314.524 317.83

Solving for solid region heater
GAMG:  Solving for e, Initial residual = 0.0683765, Final residual = 8.99883e-05, No Iterations 1
Min/max T:316.889 335.906

Solving for fluid region fluid
DILUPBiCGStab:  Solving for Ux, Initial residual = 0.00292532, Final residual = 0.000127244, No Iterations 1
DILUPBiCGStab:  Solving for Uy, Initial residual = 0.00728938, Final residual = 0.000273525, No Iterations 1
DILUPBiCGStab:  Solving for Uz, Initial residual = 0.00889707, Final residual = 0.000381859, No Iterations 1
DILUPBiCGStab:  Solving for h, Initial residual = 0.007225, Final residual = 0.00053476, No Iterations 1
Min/max T:296.856 317.604
GAMG:  Solving for p_rgh, Initial residual = 0.0208088, Final residual = 0.000135713, No Iterations 3
GAMG:  Solving for p_rgh, Initial residual = 0.00428305, Final residual = 2.27088e-05, No Iterations 3
GAMG:  Solving for p_rgh, Initial residual = 0.000689688, Final residual = 4.35925e-06, No Iterations 3
time step continuity errors : sum local = 2.48221e-05, global = 2.34762e-06, cumulative = 2.34762e-06
ExecutionTime = 6.70546 s  ClockTime = 15 s

volFieldValue volAvgFinTemperature write:
    volAverage() of T = 316.978

volFieldValue volAvgHeaterTemperature write:
    volAverage() of T = 330.055

surfaceFieldValue averageTempHeaterFinInterface write:
    areaAverage(heater_to_fins) of T = 317.47

Region: fluid Courant Number mean: 1307.27 max: 66451.5
Region: fins Diffusion Number mean: 117.318 max: 126097
Region: heater Diffusion Number mean: 71.7954 max: 522.217
Time = 11s


Solving for solid region fins
GAMG:  Solving for e, Initial residual = 0.391195, Final residual = 0.0102912, No Iterations 1
Min/max T:316.674 320.045

Solving for solid region heater
GAMG:  Solving for e, Initial residual = 0.0677437, Final residual = 6.20001e-05, No Iterations 1
Min/max T:319.1 338.133

Solving for fluid region fluid
DILUPBiCGStab:  Solving for Ux, Initial residual = 0.00274163, Final residual = 0.000119429, No Iterations 1
DILUPBiCGStab:  Solving for Uy, Initial residual = 0.00653607, Final residual = 0.000252361, No Iterations 1
DILUPBiCGStab:  Solving for Uz, Initial residual = 0.00781091, Final residual = 0.000337929, No Iterations 1
DILUPBiCGStab:  Solving for h, Initial residual = 0.00642515, Final residual = 0.000466046, No Iterations 1
Min/max T:296.854 319.813
GAMG:  Solving for p_rgh, Initial residual = 0.0180105, Final residual = 7.46723e-05, No Iterations 3
GAMG:  Solving for p_rgh, Initial residual = 0.00301598, Final residual = 1.41495e-05, No Iterations 3
GAMG:  Solving for p_rgh, Initial residual = 0.000478049, Final residual = 2.87467e-06, No Iterations 3
time step continuity errors : sum local = 1.63566e-05, global = 1.38561e-06, cumulative = 1.38561e-06
ExecutionTime = 6.93651 s  ClockTime = 15 s

volFieldValue volAvgFinTemperature write:
    volAverage() of T = 319.138

volFieldValue volAvgHeaterTemperature write:
    volAverage() of T = 332.279

surfaceFieldValue averageTempHeaterFinInterface write:
    areaAverage(heater_to_fins) of T = 319.695

Region: fluid Courant Number mean: 1307.12 max: 65506.8
Region: fins Diffusion Number mean: 117.318 max: 126097
Region: heater Diffusion Number mean: 71.7954 max: 522.217
Time = 12s


Solving for solid region fins
GAMG:  Solving for e, Initial residual = 0.373834, Final residual = 0.00991411, No Iterations 1
Min/max T:318.809 322.242

Solving for solid region heater
GAMG:  Solving for e, Initial residual = 0.067158, Final residual = 4.59664e-05, No Iterations 1
Min/max T:321.297 340.343

Solving for fluid region fluid
DILUPBiCGStab:  Solving for Ux, Initial residual = 0.00258806, Final residual = 0.000113056, No Iterations 1
DILUPBiCGStab:  Solving for Uy, Initial residual = 0.00606497, Final residual = 0.000241666, No Iterations 1
DILUPBiCGStab:  Solving for Uz, Initial residual = 0.00734677, Final residual = 0.000321394, No Iterations 1
DILUPBiCGStab:  Solving for h, Initial residual = 0.00580318, Final residual = 0.000412539, No Iterations 1
Min/max T:296.852 322.005
GAMG:  Solving for p_rgh, Initial residual = 0.0164589, Final residual = 5.79808e-05, No Iterations 3
GAMG:  Solving for p_rgh, Initial residual = 0.00256078, Final residual = 1.43832e-05, No Iterations 3
GAMG:  Solving for p_rgh, Initial residual = 0.000396765, Final residual = 3.21607e-06, No Iterations 3
time step continuity errors : sum local = 1.83441e-05, global = -1.03682e-06, cumulative = -1.03682e-06
ExecutionTime = 7.15752 s  ClockTime = 15 s

volFieldValue volAvgFinTemperature write:
    volAverage() of T = 321.283

volFieldValue volAvgHeaterTemperature write:
    volAverage() of T = 334.486

surfaceFieldValue averageTempHeaterFinInterface write:
    areaAverage(heater_to_fins) of T = 321.904

Region: fluid Courant Number mean: 1306.97 max: 64572.5
Region: fins Diffusion Number mean: 117.318 max: 126097
Region: heater Diffusion Number mean: 71.7954 max: 522.217
Time = 13s


Solving for solid region fins
GAMG:  Solving for e, Initial residual = 0.357702, Final residual = 0.00953219, No Iterations 1
Min/max T:320.929 324.423

Solving for solid region heater
GAMG:  Solving for e, Initial residual = 0.0666039, Final residual = 3.62671e-05, No Iterations 1
Min/max T:323.478 342.535

Solving for fluid region fluid
DILUPBiCGStab:  Solving for Ux, Initial residual = 0.0024676, Final residual = 0.000107907, No Iterations 1
DILUPBiCGStab:  Solving for Uy, Initial residual = 0.00566495, Final residual = 0.000230061, No Iterations 1
DILUPBiCGStab:  Solving for Uz, Initial residual = 0.00679104, Final residual = 0.000298216, No Iterations 1
DILUPBiCGStab:  Solving for h, Initial residual = 0.00530815, Final residual = 0.000371392, No Iterations 1
Min/max T:296.852 324.184
GAMG:  Solving for p_rgh, Initial residual = 0.0142, Final residual = 0.000115063, No Iterations 2
GAMG:  Solving for p_rgh, Initial residual = 0.00201821, Final residual = 1.28944e-05, No Iterations 3
GAMG:  Solving for p_rgh, Initial residual = 0.00037365, Final residual = 2.59473e-06, No Iterations 3
time step continuity errors : sum local = 1.48211e-05, global = -7.5193e-07, cumulative = -7.5193e-07
ExecutionTime = 7.40097 s  ClockTime = 16 s

volFieldValue volAvgFinTemperature write:
    volAverage() of T = 323.412

volFieldValue volAvgHeaterTemperature write:
    volAverage() of T = 336.677

surfaceFieldValue averageTempHeaterFinInterface write:
    areaAverage(heater_to_fins) of T = 324.097

Region: fluid Courant Number mean: 1306.82 max: 63657.3
Region: fins Diffusion Number mean: 117.318 max: 126097
Region: heater Diffusion Number mean: 71.7954 max: 522.217
Time = 14s


Solving for solid region fins
GAMG:  Solving for e, Initial residual = 0.342732, Final residual = 0.00916943, No Iterations 1
Min/max T:323.036 326.589

Solving for solid region heater
GAMG:  Solving for e, Initial residual = 0.0660688, Final residual = 3.02945e-05, No Iterations 1
Min/max T:325.645 344.71

Solving for fluid region fluid
DILUPBiCGStab:  Solving for Ux, Initial residual = 0.00235703, Final residual = 0.000103081, No Iterations 1
DILUPBiCGStab:  Solving for Uy, Initial residual = 0.00535071, Final residual = 0.000220174, No Iterations 1
DILUPBiCGStab:  Solving for Uz, Initial residual = 0.00638943, Final residual = 0.000280923, No Iterations 1
DILUPBiCGStab:  Solving for h, Initial residual = 0.0049099, Final residual = 0.00034088, No Iterations 1
Min/max T:296.853 326.353
GAMG:  Solving for p_rgh, Initial residual = 0.0126511, Final residual = 0.000121116, No Iterations 2
GAMG:  Solving for p_rgh, Initial residual = 0.00187449, Final residual = 1.3569e-05, No Iterations 3
GAMG:  Solving for p_rgh, Initial residual = 0.000359612, Final residual = 2.65886e-06, No Iterations 3
time step continuity errors : sum local = 1.52234e-05, global = -1.56781e-06, cumulative = -1.56781e-06
ExecutionTime = 7.62779 s  ClockTime = 16 s

volFieldValue volAvgFinTemperature write:
    volAverage() of T = 325.526

volFieldValue volAvgHeaterTemperature write:
    volAverage() of T = 338.851

surfaceFieldValue averageTempHeaterFinInterface write:
    areaAverage(heater_to_fins) of T = 326.275

Region: fluid Courant Number mean: 1306.68 max: 62770.2
Region: fins Diffusion Number mean: 117.318 max: 126097
Region: heater Diffusion Number mean: 71.7954 max: 522.217
Time = 15s


Solving for solid region fins
GAMG:  Solving for e, Initial residual = 0.328744, Final residual = 0.00882131, No Iterations 1
Min/max T:325.128 328.738

Solving for solid region heater
GAMG:  Solving for e, Initial residual = 0.0655469, Final residual = 2.65681e-05, No Iterations 1
Min/max T:327.796 346.869

Solving for fluid region fluid
DILUPBiCGStab:  Solving for Ux, Initial residual = 0.00226678, Final residual = 9.90316e-05, No Iterations 1
DILUPBiCGStab:  Solving for Uy, Initial residual = 0.00508445, Final residual = 0.000211491, No Iterations 1
DILUPBiCGStab:  Solving for Uz, Initial residual = 0.00601774, Final residual = 0.000264525, No Iterations 1
DILUPBiCGStab:  Solving for h, Initial residual = 0.00457916, Final residual = 0.000316489, No Iterations 1
Min/max T:296.859 328.507
GAMG:  Solving for p_rgh, Initial residual = 0.0114034, Final residual = 0.000112991, No Iterations 2
GAMG:  Solving for p_rgh, Initial residual = 0.00175486, Final residual = 1.36004e-05, No Iterations 3
GAMG:  Solving for p_rgh, Initial residual = 0.000340935, Final residual = 2.62756e-06, No Iterations 3
time step continuity errors : sum local = 1.50805e-05, global = -1.53682e-06, cumulative = -1.53682e-06
ExecutionTime = 7.81161 s  ClockTime = 17 s

volFieldValue volAvgFinTemperature write:
    volAverage() of T = 327.625

volFieldValue volAvgHeaterTemperature write:
    volAverage() of T = 341.009

surfaceFieldValue averageTempHeaterFinInterface write:
    areaAverage(heater_to_fins) of T = 328.437

Region: fluid Courant Number mean: 1306.54 max: 61919.7
Region: fins Diffusion Number mean: 117.318 max: 126097
Region: heater Diffusion Number mean: 71.7954 max: 522.217
Time = 16s


Solving for solid region fins
GAMG:  Solving for e, Initial residual = 0.315623, Final residual = 0.008489, No Iterations 1
Min/max T:327.206 330.871

Solving for solid region heater
GAMG:  Solving for e, Initial residual = 0.0650337, Final residual = 2.42643e-05, No Iterations 1
Min/max T:329.932 349.011

Solving for fluid region fluid
DILUPBiCGStab:  Solving for Ux, Initial residual = 0.0021874, Final residual = 9.54885e-05, No Iterations 1
DILUPBiCGStab:  Solving for Uy, Initial residual = 0.00485256, Final residual = 0.000203401, No Iterations 1
DILUPBiCGStab:  Solving for Uz, Initial residual = 0.00570404, Final residual = 0.000250174, No Iterations 1
DILUPBiCGStab:  Solving for h, Initial residual = 0.0043001, Final residual = 0.000296049, No Iterations 1
Min/max T:296.864 330.644
GAMG:  Solving for p_rgh, Initial residual = 0.0106087, Final residual = 9.95765e-05, No Iterations 2
GAMG:  Solving for p_rgh, Initial residual = 0.00168395, Final residual = 1.34137e-05, No Iterations 3
GAMG:  Solving for p_rgh, Initial residual = 0.000324206, Final residual = 2.38149e-06, No Iterations 3
time step continuity errors : sum local = 1.3709e-05, global = -3.25321e-07, cumulative = -3.25321e-07
ExecutionTime = 7.98346 s  ClockTime = 17 s

volFieldValue volAvgFinTemperature write:
    volAverage() of T = 329.709

volFieldValue volAvgHeaterTemperature write:
    volAverage() of T = 343.151

surfaceFieldValue averageTempHeaterFinInterface write:
    areaAverage(heater_to_fins) of T = 330.583

Region: fluid Courant Number mean: 1306.41 max: 61113.7
Region: fins Diffusion Number mean: 117.318 max: 126097
Region: heater Diffusion Number mean: 71.7954 max: 522.217
Time = 17s


Solving for solid region fins
GAMG:  Solving for e, Initial residual = 0.303275, Final residual = 0.00816961, No Iterations 1
Min/max T:329.269 332.989

Solving for solid region heater
GAMG:  Solving for e, Initial residual = 0.0645275, Final residual = 2.28903e-05, No Iterations 1
Min/max T:332.053 351.139

Solving for fluid region fluid
DILUPBiCGStab:  Solving for Ux, Initial residual = 0.00211559, Final residual = 9.2206e-05, No Iterations 1
DILUPBiCGStab:  Solving for Uy, Initial residual = 0.00464562, Final residual = 0.000195662, No Iterations 1
DILUPBiCGStab:  Solving for Uz, Initial residual = 0.00541321, Final residual = 0.000236814, No Iterations 1
DILUPBiCGStab:  Solving for h, Initial residual = 0.00405611, Final residual = 0.000278473, No Iterations 1
Min/max T:296.86 332.775
GAMG:  Solving for p_rgh, Initial residual = 0.00974344, Final residual = 9.54671e-05, No Iterations 2
GAMG:  Solving for p_rgh, Initial residual = 0.00145742, Final residual = 1.10769e-05, No Iterations 3
GAMG:  Solving for p_rgh, Initial residual = 0.000284377, Final residual = 1.94819e-06, No Iterations 3
time step continuity errors : sum local = 1.12416e-05, global = -1.70491e-06, cumulative = -1.70491e-06
ExecutionTime = 8.14512 s  ClockTime = 17 s

volFieldValue volAvgFinTemperature write:
    volAverage() of T = 331.778

volFieldValue volAvgHeaterTemperature write:
    volAverage() of T = 345.277

surfaceFieldValue averageTempHeaterFinInterface write:
    areaAverage(heater_to_fins) of T = 332.714

Region: fluid Courant Number mean: 1306.28 max: 60357.9
Region: fins Diffusion Number mean: 117.318 max: 126097
Region: heater Diffusion Number mean: 71.7954 max: 522.217
Time = 18s


Solving for solid region fins
GAMG:  Solving for e, Initial residual = 0.291558, Final residual = 0.00785982, No Iterations 1
Min/max T:331.318 335.091

Solving for solid region heater
GAMG:  Solving for e, Initial residual = 0.0640278, Final residual = 2.20799e-05, No Iterations 1
Min/max T:334.16 353.25

Solving for fluid region fluid
DILUPBiCGStab:  Solving for Ux, Initial residual = 0.00205286, Final residual = 8.92881e-05, No Iterations 1
DILUPBiCGStab:  Solving for Uy, Initial residual = 0.00445868, Final residual = 0.000188439, No Iterations 1
DILUPBiCGStab:  Solving for Uz, Initial residual = 0.00516689, Final residual = 0.00022519, No Iterations 1
DILUPBiCGStab:  Solving for h, Initial residual = 0.00384363, Final residual = 0.00026261, No Iterations 1
Min/max T:296.856 334.894
GAMG:  Solving for p_rgh, Initial residual = 0.00890945, Final residual = 8.41929e-05, No Iterations 2
GAMG:  Solving for p_rgh, Initial residual = 0.00132059, Final residual = 1.01561e-05, No Iterations 3
GAMG:  Solving for p_rgh, Initial residual = 0.000256753, Final residual = 1.82249e-06, No Iterations 3
time step continuity errors : sum local = 1.05393e-05, global = -1.78941e-06, cumulative = -1.78941e-06
ExecutionTime = 8.33535 s  ClockTime = 17 s

volFieldValue volAvgFinTemperature write:
    volAverage() of T = 333.831

volFieldValue volAvgHeaterTemperature write:
    volAverage() of T = 347.389

surfaceFieldValue averageTempHeaterFinInterface write:
    areaAverage(heater_to_fins) of T = 334.83

Region: fluid Courant Number mean: 1306.15 max: 59656.3
Region: fins Diffusion Number mean: 117.318 max: 126097
Region: heater Diffusion Number mean: 71.7954 max: 522.217
Time = 19s


Solving for solid region fins
GAMG:  Solving for e, Initial residual = 0.280544, Final residual = 0.00756723, No Iterations 1
Min/max T:333.353 337.178

Solving for solid region heater
GAMG:  Solving for e, Initial residual = 0.0635334, Final residual = 2.1572e-05, No Iterations 1
Min/max T:336.251 355.347

Solving for fluid region fluid
DILUPBiCGStab:  Solving for Ux, Initial residual = 0.00199596, Final residual = 8.66608e-05, No Iterations 1
DILUPBiCGStab:  Solving for Uy, Initial residual = 0.00428773, Final residual = 0.000181812, No Iterations 1
DILUPBiCGStab:  Solving for Uz, Initial residual = 0.00493953, Final residual = 0.000214424, No Iterations 1
DILUPBiCGStab:  Solving for h, Initial residual = 0.00365847, Final residual = 0.000249037, No Iterations 1
Min/max T:296.851 336.999
GAMG:  Solving for p_rgh, Initial residual = 0.00838009, Final residual = 7.84535e-05, No Iterations 2
GAMG:  Solving for p_rgh, Initial residual = 0.00123842, Final residual = 9.28155e-06, No Iterations 3
GAMG:  Solving for p_rgh, Initial residual = 0.000237095, Final residual = 1.65454e-06, No Iterations 3
time step continuity errors : sum local = 9.58514e-06, global = -1.5921e-06, cumulative = -1.5921e-06
ExecutionTime = 8.49406 s  ClockTime = 18 s

volFieldValue volAvgFinTemperature write:
    volAverage() of T = 335.871

volFieldValue volAvgHeaterTemperature write:
    volAverage() of T = 349.485

surfaceFieldValue averageTempHeaterFinInterface write:
    areaAverage(heater_to_fins) of T = 336.931

Region: fluid Courant Number mean: 1306.02 max: 59010.4
Region: fins Diffusion Number mean: 117.318 max: 126097
Region: heater Diffusion Number mean: 71.7954 max: 522.217
Time = 20s


Solving for solid region fins
GAMG:  Solving for e, Initial residual = 0.270153, Final residual = 0.00728716, No Iterations 1
Min/max T:335.373 339.251

Solving for solid region heater
GAMG:  Solving for e, Initial residual = 0.0630443, Final residual = 2.12013e-05, No Iterations 1
Min/max T:338.327 357.429

Solving for fluid region fluid
DILUPBiCGStab:  Solving for Ux, Initial residual = 0.00194378, Final residual = 8.42095e-05, No Iterations 1
DILUPBiCGStab:  Solving for Uy, Initial residual = 0.00412975, Final residual = 0.000175595, No Iterations 1
DILUPBiCGStab:  Solving for Uz, Initial residual = 0.0047339, Final residual = 0.000204665, No Iterations 1
DILUPBiCGStab:  Solving for h, Initial residual = 0.00349112, Final residual = 0.000236707, No Iterations 1
Min/max T:296.846 339.088
GAMG:  Solving for p_rgh, Initial residual = 0.00792462, Final residual = 7.49408e-05, No Iterations 2
GAMG:  Solving for p_rgh, Initial residual = 0.00116921, Final residual = 8.94773e-06, No Iterations 3
GAMG:  Solving for p_rgh, Initial residual = 0.000228363, Final residual = 1.59266e-06, No Iterations 3
time step continuity errors : sum local = 9.24221e-06, global = -1.68499e-06, cumulative = -1.68499e-06
ExecutionTime = 8.67297 s  ClockTime = 18 s

volFieldValue volAvgFinTemperature write:
    volAverage() of T = 337.895

volFieldValue volAvgHeaterTemperature write:
    volAverage() of T = 351.566

surfaceFieldValue averageTempHeaterFinInterface write:
    areaAverage(heater_to_fins) of T = 339.016

Region: fluid Courant Number mean: 1305.89 max: 58419.7
Region: fins Diffusion Number mean: 117.318 max: 126097
Region: heater Diffusion Number mean: 71.7954 max: 522.217
Time = 21s


Solving for solid region fins
GAMG:  Solving for e, Initial residual = 0.260416, Final residual = 0.00702463, No Iterations 1
Min/max T:337.379 341.308

Solving for solid region heater
GAMG:  Solving for e, Initial residual = 0.0625595, Final residual = 2.092e-05, No Iterations 1
Min/max T:340.389 359.495

Solving for fluid region fluid
DILUPBiCGStab:  Solving for Ux, Initial residual = 0.00189562, Final residual = 8.19123e-05, No Iterations 1
DILUPBiCGStab:  Solving for Uy, Initial residual = 0.00398162, Final residual = 0.000169469, No Iterations 1
DILUPBiCGStab:  Solving for Uz, Initial residual = 0.00454411, Final residual = 0.000195775, No Iterations 1
DILUPBiCGStab:  Solving for h, Initial residual = 0.00333931, Final residual = 0.000225707, No Iterations 1
Min/max T:296.842 341.163
GAMG:  Solving for p_rgh, Initial residual = 0.00743145, Final residual = 7.30361e-05, No Iterations 2
GAMG:  Solving for p_rgh, Initial residual = 0.00109359, Final residual = 8.4726e-06, No Iterations 3
GAMG:  Solving for p_rgh, Initial residual = 0.000213045, Final residual = 1.49367e-06, No Iterations 3
time step continuity errors : sum local = 8.6799e-06, global = -1.68291e-06, cumulative = -1.68291e-06
ExecutionTime = 8.8347 s  ClockTime = 18 s

volFieldValue volAvgFinTemperature write:
    volAverage() of T = 339.906

volFieldValue volAvgHeaterTemperature write:
    volAverage() of T = 353.633

surfaceFieldValue averageTempHeaterFinInterface write:
    areaAverage(heater_to_fins) of T = 341.087

Region: fluid Courant Number mean: 1305.77 max: 57882
Region: fins Diffusion Number mean: 117.318 max: 126097
Region: heater Diffusion Number mean: 71.7954 max: 522.217
Time = 22s


Solving for solid region fins
GAMG:  Solving for e, Initial residual = 0.251279, Final residual = 0.0067762, No Iterations 1
Min/max T:339.371 343.351

Solving for solid region heater
GAMG:  Solving for e, Initial residual = 0.0620796, Final residual = 2.06865e-05, No Iterations 1
Min/max T:342.436 361.547

Solving for fluid region fluid
DILUPBiCGStab:  Solving for Ux, Initial residual = 0.00185057, Final residual = 7.97633e-05, No Iterations 1
DILUPBiCGStab:  Solving for Uy, Initial residual = 0.00384317, Final residual = 0.000163557, No Iterations 1
DILUPBiCGStab:  Solving for Uz, Initial residual = 0.00436958, Final residual = 0.000187586, No Iterations 1
DILUPBiCGStab:  Solving for h, Initial residual = 0.0032014, Final residual = 0.00021554, No Iterations 1
Min/max T:296.836 343.223
GAMG:  Solving for p_rgh, Initial residual = 0.00710199, Final residual = 7.05989e-05, No Iterations 2
GAMG:  Solving for p_rgh, Initial residual = 0.00103188, Final residual = 8.1677e-06, No Iterations 3
GAMG:  Solving for p_rgh, Initial residual = 0.00020443, Final residual = 1.42961e-06, No Iterations 3
time step continuity errors : sum local = 8.31826e-06, global = -1.60242e-06, cumulative = -1.60242e-06
ExecutionTime = 9.00023 s  ClockTime = 19 s

volFieldValue volAvgFinTemperature write:
    volAverage() of T = 341.902

volFieldValue volAvgHeaterTemperature write:
    volAverage() of T = 355.684

surfaceFieldValue averageTempHeaterFinInterface write:
    areaAverage(heater_to_fins) of T = 343.143

Region: fluid Courant Number mean: 1305.65 max: 57393.8
Region: fins Diffusion Number mean: 117.318 max: 126097
Region: heater Diffusion Number mean: 71.7954 max: 522.217
Time = 23s


Solving for solid region fins
GAMG:  Solving for e, Initial residual = 0.242695, Final residual = 0.0065413, No Iterations 1
Min/max T:341.349 345.399

Solving for solid region heater
GAMG:  Solving for e, Initial residual = 0.0616045, Final residual = 2.04817e-05, No Iterations 1
Min/max T:344.469 363.584

Solving for fluid region fluid
DILUPBiCGStab:  Solving for Ux, Initial residual = 0.00180919, Final residual = 7.77987e-05, No Iterations 1
DILUPBiCGStab:  Solving for Uy, Initial residual = 0.0037144, Final residual = 0.000157999, No Iterations 1
DILUPBiCGStab:  Solving for Uz, Initial residual = 0.00420477, Final residual = 0.00018002, No Iterations 1
DILUPBiCGStab:  Solving for h, Initial residual = 0.003074, Final residual = 0.000206053, No Iterations 1
Min/max T:296.831 345.268
GAMG:  Solving for p_rgh, Initial residual = 0.00684705, Final residual = 2.70237e-05, No Iterations 3
GAMG:  Solving for p_rgh, Initial residual = 0.00102338, Final residual = 5.08789e-06, No Iterations 3
GAMG:  Solving for p_rgh, Initial residual = 0.000161334, Final residual = 1.10058e-06, No Iterations 3
time step continuity errors : sum local = 6.41155e-06, global = -1.3841e-06, cumulative = -1.3841e-06
ExecutionTime = 9.20545 s  ClockTime = 19 s

volFieldValue volAvgFinTemperature write:
    volAverage() of T = 343.884

volFieldValue volAvgHeaterTemperature write:
    volAverage() of T = 357.721

surfaceFieldValue averageTempHeaterFinInterface write:
    areaAverage(heater_to_fins) of T = 345.185

Region: fluid Courant Number mean: 1305.52 max: 56950.5
Region: fins Diffusion Number mean: 117.318 max: 126097
Region: heater Diffusion Number mean: 71.7954 max: 522.217
Time = 24s


Solving for solid region fins
GAMG:  Solving for e, Initial residual = 0.234622, Final residual = 0.00631815, No Iterations 1
Min/max T:343.313 347.434

Solving for solid region heater
GAMG:  Solving for e, Initial residual = 0.0611343, Final residual = 2.02914e-05, No Iterations 1
Min/max T:346.487 365.607

Solving for fluid region fluid
DILUPBiCGStab:  Solving for Ux, Initial residual = 0.00177052, Final residual = 7.59498e-05, No Iterations 1
DILUPBiCGStab:  Solving for Uy, Initial residual = 0.0035925, Final residual = 0.00015279, No Iterations 1
DILUPBiCGStab:  Solving for Uz, Initial residual = 0.00404728, Final residual = 0.000172992, No Iterations 1
DILUPBiCGStab:  Solving for h, Initial residual = 0.00295538, Final residual = 0.000197291, No Iterations 1
Min/max T:296.825 347.298
GAMG:  Solving for p_rgh, Initial residual = 0.00657536, Final residual = 2.62078e-05, No Iterations 3
GAMG:  Solving for p_rgh, Initial residual = 0.000978318, Final residual = 4.80984e-06, No Iterations 3
GAMG:  Solving for p_rgh, Initial residual = 0.000155153, Final residual = 1.0343e-06, No Iterations 3
time step continuity errors : sum local = 6.03222e-06, global = -1.30165e-06, cumulative = -1.30165e-06
ExecutionTime = 9.37391 s  ClockTime = 19 s

volFieldValue volAvgFinTemperature write:
    volAverage() of T = 345.851

volFieldValue volAvgHeaterTemperature write:
    volAverage() of T = 359.744

surfaceFieldValue averageTempHeaterFinInterface write:
    areaAverage(heater_to_fins) of T = 347.211

Region: fluid Courant Number mean: 1305.4 max: 56547.2
Region: fins Diffusion Number mean: 117.318 max: 126097
Region: heater Diffusion Number mean: 71.7954 max: 522.217
Time = 25s


Solving for solid region fins
GAMG:  Solving for e, Initial residual = 0.226969, Final residual = 0.00610845, No Iterations 1
Min/max T:345.263 349.454

Solving for solid region heater
GAMG:  Solving for e, Initial residual = 0.0606682, Final residual = 2.01179e-05, No Iterations 1
Min/max T:348.491 367.616

Solving for fluid region fluid
DILUPBiCGStab:  Solving for Ux, Initial residual = 0.00173433, Final residual = 7.42328e-05, No Iterations 1
DILUPBiCGStab:  Solving for Uy, Initial residual = 0.00347917, Final residual = 0.000148009, No Iterations 1
DILUPBiCGStab:  Solving for Uz, Initial residual = 0.00390099, Final residual = 0.000166497, No Iterations 1
DILUPBiCGStab:  Solving for h, Initial residual = 0.00284739, Final residual = 0.000189203, No Iterations 1
Min/max T:296.82 349.314
GAMG:  Solving for p_rgh, Initial residual = 0.00638905, Final residual = 2.56134e-05, No Iterations 3
GAMG:  Solving for p_rgh, Initial residual = 0.000942671, Final residual = 4.63744e-06, No Iterations 3
GAMG:  Solving for p_rgh, Initial residual = 0.000150506, Final residual = 9.97121e-07, No Iterations 3
time step continuity errors : sum local = 5.82156e-06, global = -1.29182e-06, cumulative = -1.29182e-06
ExecutionTime = 9.53747 s  ClockTime = 20 s

volFieldValue volAvgFinTemperature write:
    volAverage() of T = 347.805

volFieldValue volAvgHeaterTemperature write:
    volAverage() of T = 361.752

surfaceFieldValue averageTempHeaterFinInterface write:
    areaAverage(heater_to_fins) of T = 349.224

Region: fluid Courant Number mean: 1305.28 max: 56178.3
Region: fins Diffusion Number mean: 117.318 max: 126097
Region: heater Diffusion Number mean: 71.7954 max: 522.217
Time = 26s


Solving for solid region fins
GAMG:  Solving for e, Initial residual = 0.219672, Final residual = 0.00590806, No Iterations 1
Min/max T:347.199 351.46

Solving for solid region heater
GAMG:  Solving for e, Initial residual = 0.0602064, Final residual = 1.99524e-05, No Iterations 1
Min/max T:350.48 369.61

Solving for fluid region fluid
DILUPBiCGStab:  Solving for Ux, Initial residual = 0.00170024, Final residual = 7.26356e-05, No Iterations 1
DILUPBiCGStab:  Solving for Uy, Initial residual = 0.00337103, Final residual = 0.000143452, No Iterations 1
DILUPBiCGStab:  Solving for Uz, Initial residual = 0.00376435, Final residual = 0.000160453, No Iterations 1
DILUPBiCGStab:  Solving for h, Initial residual = 0.00274598, Final residual = 0.000181463, No Iterations 1
Min/max T:296.814 351.316
GAMG:  Solving for p_rgh, Initial residual = 0.0061909, Final residual = 2.50397e-05, No Iterations 3
GAMG:  Solving for p_rgh, Initial residual = 0.000901866, Final residual = 4.42857e-06, No Iterations 3
GAMG:  Solving for p_rgh, Initial residual = 0.000143502, Final residual = 9.39724e-07, No Iterations 3
time step continuity errors : sum local = 5.49256e-06, global = -1.24823e-06, cumulative = -1.24823e-06
ExecutionTime = 9.71257 s  ClockTime = 20 s

volFieldValue volAvgFinTemperature write:
    volAverage() of T = 349.745

volFieldValue volAvgHeaterTemperature write:
    volAverage() of T = 363.746

surfaceFieldValue averageTempHeaterFinInterface write:
    areaAverage(heater_to_fins) of T = 351.222

Region: fluid Courant Number mean: 1305.16 max: 55838.6
Region: fins Diffusion Number mean: 117.318 max: 126097
Region: heater Diffusion Number mean: 71.7954 max: 522.217
Time = 27s


Solving for solid region fins
GAMG:  Solving for e, Initial residual = 0.212758, Final residual = 0.00571664, No Iterations 1
Min/max T:349.122 353.452

Solving for solid region heater
GAMG:  Solving for e, Initial residual = 0.0597489, Final residual = 1.97907e-05, No Iterations 1
Min/max T:352.456 371.59

Solving for fluid region fluid
DILUPBiCGStab:  Solving for Ux, Initial residual = 0.00166762, Final residual = 7.11212e-05, No Iterations 1
DILUPBiCGStab:  Solving for Uy, Initial residual = 0.00326932, Final residual = 0.000139063, No Iterations 1
DILUPBiCGStab:  Solving for Uz, Initial residual = 0.00363459, Final residual = 0.00015465, No Iterations 1
DILUPBiCGStab:  Solving for h, Initial residual = 0.00265099, Final residual = 0.000174054, No Iterations 1
Min/max T:296.807 353.304
GAMG:  Solving for p_rgh, Initial residual = 0.00604055, Final residual = 2.46557e-05, No Iterations 3
GAMG:  Solving for p_rgh, Initial residual = 0.000878155, Final residual = 4.29129e-06, No Iterations 3
GAMG:  Solving for p_rgh, Initial residual = 0.000139999, Final residual = 9.07764e-07, No Iterations 3
time step continuity errors : sum local = 5.31206e-06, global = -1.22166e-06, cumulative = -1.22166e-06
ExecutionTime = 9.86418 s  ClockTime = 20 s

volFieldValue volAvgFinTemperature write:
    volAverage() of T = 351.672

volFieldValue volAvgHeaterTemperature write:
    volAverage() of T = 365.726

surfaceFieldValue averageTempHeaterFinInterface write:
    areaAverage(heater_to_fins) of T = 353.206

Region: fluid Courant Number mean: 1305.04 max: 55523
Region: fins Diffusion Number mean: 117.318 max: 126097
Region: heater Diffusion Number mean: 71.7954 max: 522.217
Time = 28s


Solving for solid region fins
GAMG:  Solving for e, Initial residual = 0.206222, Final residual = 0.00553394, No Iterations 1
Min/max T:351.031 355.43

Solving for solid region heater
GAMG:  Solving for e, Initial residual = 0.0592959, Final residual = 1.96315e-05, No Iterations 1
Min/max T:354.418 373.556

Solving for fluid region fluid
DILUPBiCGStab:  Solving for Ux, Initial residual = 0.00163645, Final residual = 6.96708e-05, No Iterations 1
DILUPBiCGStab:  Solving for Uy, Initial residual = 0.0031744, Final residual = 0.000134858, No Iterations 1
DILUPBiCGStab:  Solving for Uz, Initial residual = 0.00351077, Final residual = 0.000149026, No Iterations 1
DILUPBiCGStab:  Solving for h, Initial residual = 0.00255959, Final residual = 0.00016707, No Iterations 1
Min/max T:296.801 355.278
GAMG:  Solving for p_rgh, Initial residual = 0.00590918, Final residual = 2.40529e-05, No Iterations 3
GAMG:  Solving for p_rgh, Initial residual = 0.000854156, Final residual = 4.17296e-06, No Iterations 3
GAMG:  Solving for p_rgh, Initial residual = 0.000135822, Final residual = 8.76665e-07, No Iterations 3
time step continuity errors : sum local = 5.13592e-06, global = -1.19388e-06, cumulative = -1.19388e-06
ExecutionTime = 10.0203 s  ClockTime = 21 s

volFieldValue volAvgFinTemperature write:
    volAverage() of T = 353.585

volFieldValue volAvgHeaterTemperature write:
    volAverage() of T = 367.692

surfaceFieldValue averageTempHeaterFinInterface write:
    areaAverage(heater_to_fins) of T = 355.176

Region: fluid Courant Number mean: 1304.92 max: 55226.8
Region: fins Diffusion Number mean: 117.318 max: 126097
Region: heater Diffusion Number mean: 71.7954 max: 522.217
Time = 29s


Solving for solid region fins
GAMG:  Solving for e, Initial residual = 0.200032, Final residual = 0.00535907, No Iterations 1
Min/max T:352.927 357.394

Solving for solid region heater
GAMG:  Solving for e, Initial residual = 0.0588476, Final residual = 1.94711e-05, No Iterations 1
Min/max T:356.365 375.508

Solving for fluid region fluid
DILUPBiCGStab:  Solving for Ux, Initial residual = 0.00160624, Final residual = 6.82728e-05, No Iterations 1
DILUPBiCGStab:  Solving for Uy, Initial residual = 0.00308491, Final residual = 0.000130923, No Iterations 1
DILUPBiCGStab:  Solving for Uz, Initial residual = 0.00339416, Final residual = 0.000143647, No Iterations 1
DILUPBiCGStab:  Solving for h, Initial residual = 0.00247109, Final residual = 0.00016054, No Iterations 1
Min/max T:296.795 357.237
GAMG:  Solving for p_rgh, Initial residual = 0.00573287, Final residual = 2.31372e-05, No Iterations 3
GAMG:  Solving for p_rgh, Initial residual = 0.000823094, Final residual = 3.905e-06, No Iterations 3
GAMG:  Solving for p_rgh, Initial residual = 0.000130755, Final residual = 8.87127e-07, No Iterations 3
time step continuity errors : sum local = 5.20284e-06, global = -1.21933e-06, cumulative = -1.21933e-06
ExecutionTime = 10.1808 s  ClockTime = 21 s

volFieldValue volAvgFinTemperature write:
    volAverage() of T = 355.484

volFieldValue volAvgHeaterTemperature write:
    volAverage() of T = 369.644

surfaceFieldValue averageTempHeaterFinInterface write:
    areaAverage(heater_to_fins) of T = 357.132

Region: fluid Courant Number mean: 1304.81 max: 54945.8
Region: fins Diffusion Number mean: 117.318 max: 126097
Region: heater Diffusion Number mean: 71.7954 max: 522.217
Time = 30s


Solving for solid region fins
GAMG:  Solving for e, Initial residual = 0.19413, Final residual = 0.00519642, No Iterations 1
Min/max T:354.809 359.344

Solving for solid region heater
GAMG:  Solving for e, Initial residual = 0.0584029, Final residual = 1.93182e-05, No Iterations 1
Min/max T:358.299 377.447

Solving for fluid region fluid
DILUPBiCGStab:  Solving for Ux, Initial residual = 0.00157708, Final residual = 6.69051e-05, No Iterations 1
DILUPBiCGStab:  Solving for Uy, Initial residual = 0.00299965, Final residual = 0.000127105, No Iterations 1
DILUPBiCGStab:  Solving for Uz, Initial residual = 0.00328193, Final residual = 0.000138467, No Iterations 1
DILUPBiCGStab:  Solving for h, Initial residual = 0.00238813, Final residual = 0.000154392, No Iterations 1
Min/max T:296.789 359.183
GAMG:  Solving for p_rgh, Initial residual = 0.00563556, Final residual = 2.25782e-05, No Iterations 3
GAMG:  Solving for p_rgh, Initial residual = 0.000803123, Final residual = 3.79028e-06, No Iterations 3
GAMG:  Solving for p_rgh, Initial residual = 0.000128355, Final residual = 8.78076e-07, No Iterations 3
time step continuity errors : sum local = 5.15497e-06, global = -1.21585e-06, cumulative = -1.21585e-06
ExecutionTime = 10.3382 s  ClockTime = 21 s

volFieldValue volAvgFinTemperature write:
    volAverage() of T = 357.37

volFieldValue volAvgHeaterTemperature write:
    volAverage() of T = 371.582

surfaceFieldValue averageTempHeaterFinInterface write:
    areaAverage(heater_to_fins) of T = 359.075

Region: fluid Courant Number mean: 1304.69 max: 54676.1
Region: fins Diffusion Number mean: 117.318 max: 126097
Region: heater Diffusion Number mean: 71.7954 max: 522.217
Time = 31s


Solving for solid region fins
GAMG:  Solving for e, Initial residual = 0.188529, Final residual = 0.00504599, No Iterations 1
Min/max T:356.678 361.28

Solving for solid region heater
GAMG:  Solving for e, Initial residual = 0.0579615, Final residual = 1.91758e-05, No Iterations 1
Min/max T:360.22 379.371

Solving for fluid region fluid
DILUPBiCGStab:  Solving for Ux, Initial residual = 0.00154867, Final residual = 6.5571e-05, No Iterations 1
DILUPBiCGStab:  Solving for Uy, Initial residual = 0.00291754, Final residual = 0.000123536, No Iterations 1
DILUPBiCGStab:  Solving for Uz, Initial residual = 0.00317415, Final residual = 0.000133522, No Iterations 1
DILUPBiCGStab:  Solving for h, Initial residual = 0.00230824, Final residual = 0.000148622, No Iterations 1
Min/max T:296.783 361.115
GAMG:  Solving for p_rgh, Initial residual = 0.00549433, Final residual = 2.22762e-05, No Iterations 3
GAMG:  Solving for p_rgh, Initial residual = 0.000785989, Final residual = 3.69286e-06, No Iterations 3
GAMG:  Solving for p_rgh, Initial residual = 0.000126172, Final residual = 8.48801e-07, No Iterations 3
time step continuity errors : sum local = 4.98777e-06, global = -1.18417e-06, cumulative = -1.18417e-06
ExecutionTime = 10.4822 s  ClockTime = 22 s

volFieldValue volAvgFinTemperature write:
    volAverage() of T = 359.243

volFieldValue volAvgHeaterTemperature write:
    volAverage() of T = 373.506

surfaceFieldValue averageTempHeaterFinInterface write:
    areaAverage(heater_to_fins) of T = 361.003

Region: fluid Courant Number mean: 1304.58 max: 54414.6
Region: fins Diffusion Number mean: 117.318 max: 126097
Region: heater Diffusion Number mean: 71.7954 max: 522.217
Time = 32s


Solving for solid region fins
GAMG:  Solving for e, Initial residual = 0.183211, Final residual = 0.00492017, No Iterations 1
Min/max T:358.534 363.203

Solving for solid region heater
GAMG:  Solving for e, Initial residual = 0.05752, Final residual = 1.90829e-05, No Iterations 1
Min/max T:362.127 381.282

Solving for fluid region fluid
DILUPBiCGStab:  Solving for Ux, Initial residual = 0.00152113, Final residual = 6.42986e-05, No Iterations 1
DILUPBiCGStab:  Solving for Uy, Initial residual = 0.00283904, Final residual = 0.000120191, No Iterations 1
DILUPBiCGStab:  Solving for Uz, Initial residual = 0.00307025, Final residual = 0.000128866, No Iterations 1
DILUPBiCGStab:  Solving for h, Initial residual = 0.00223338, Final residual = 0.000143044, No Iterations 1
Min/max T:296.777 363.034
GAMG:  Solving for p_rgh, Initial residual = 0.00535789, Final residual = 2.16962e-05, No Iterations 3
GAMG:  Solving for p_rgh, Initial residual = 0.000766582, Final residual = 3.58826e-06, No Iterations 3
GAMG:  Solving for p_rgh, Initial residual = 0.00012273, Final residual = 8.18135e-07, No Iterations 3
time step continuity errors : sum local = 4.81247e-06, global = -1.14925e-06, cumulative = -1.14925e-06
ExecutionTime = 10.6377 s  ClockTime = 22 s

volFieldValue volAvgFinTemperature write:
    volAverage() of T = 361.102

volFieldValue volAvgHeaterTemperature write:
    volAverage() of T = 375.417

surfaceFieldValue averageTempHeaterFinInterface write:
    areaAverage(heater_to_fins) of T = 362.918

Region: fluid Courant Number mean: 1304.46 max: 54158.4
Region: fins Diffusion Number mean: 117.318 max: 126097
Region: heater Diffusion Number mean: 71.7954 max: 522.217
Time = 33s


Solving for solid region fins
GAMG:  Solving for e, Initial residual = 0.178138, Final residual = 0.00481259, No Iterations 1
Min/max T:360.377 365.112

Solving for solid region heater
GAMG:  Solving for e, Initial residual = 0.0570781, Final residual = 1.90419e-05, No Iterations 1
Min/max T:364.02 383.18

Solving for fluid region fluid
DILUPBiCGStab:  Solving for Ux, Initial residual = 0.00149415, Final residual = 6.30707e-05, No Iterations 1
DILUPBiCGStab:  Solving for Uy, Initial residual = 0.00276532, Final residual = 0.000117039, No Iterations 1
DILUPBiCGStab:  Solving for Uz, Initial residual = 0.00297056, Final residual = 0.000124493, No Iterations 1
DILUPBiCGStab:  Solving for h, Initial residual = 0.00216266, Final residual = 0.000137569, No Iterations 1
Min/max T:296.771 364.938
GAMG:  Solving for p_rgh, Initial residual = 0.00523761, Final residual = 2.13109e-05, No Iterations 3
GAMG:  Solving for p_rgh, Initial residual = 0.000751105, Final residual = 3.50874e-06, No Iterations 3
GAMG:  Solving for p_rgh, Initial residual = 0.000120051, Final residual = 7.9577e-07, No Iterations 3
time step continuity errors : sum local = 4.68594e-06, global = -1.12204e-06, cumulative = -1.12204e-06
ExecutionTime = 10.8127 s  ClockTime = 22 s

volFieldValue volAvgFinTemperature write:
    volAverage() of T = 362.947

volFieldValue volAvgHeaterTemperature write:
    volAverage() of T = 377.314

surfaceFieldValue averageTempHeaterFinInterface write:
    areaAverage(heater_to_fins) of T = 364.819

Region: fluid Courant Number mean: 1304.35 max: 53905.3
Region: fins Diffusion Number mean: 117.318 max: 126097
Region: heater Diffusion Number mean: 71.7954 max: 522.217
Time = 34s


Solving for solid region fins
GAMG:  Solving for e, Initial residual = 0.1733, Final residual = 0.00471807, No Iterations 1
Min/max T:362.205 367.007

Solving for solid region heater
GAMG:  Solving for e, Initial residual = 0.0566358, Final residual = 1.90448e-05, No Iterations 1
Min/max T:365.899 385.063

Solving for fluid region fluid
DILUPBiCGStab:  Solving for Ux, Initial residual = 0.00146814, Final residual = 6.18733e-05, No Iterations 1
DILUPBiCGStab:  Solving for Uy, Initial residual = 0.0026981, Final residual = 0.000114122, No Iterations 1
DILUPBiCGStab:  Solving for Uz, Initial residual = 0.00287461, Final residual = 0.000120236, No Iterations 1
DILUPBiCGStab:  Solving for h, Initial residual = 0.00209618, Final residual = 0.000132214, No Iterations 1
Min/max T:296.766 366.829
GAMG:  Solving for p_rgh, Initial residual = 0.00512983, Final residual = 2.10427e-05, No Iterations 3
GAMG:  Solving for p_rgh, Initial residual = 0.000737838, Final residual = 3.45268e-06, No Iterations 3
GAMG:  Solving for p_rgh, Initial residual = 0.000118035, Final residual = 7.81e-07, No Iterations 3
time step continuity errors : sum local = 4.6039e-06, global = -1.10766e-06, cumulative = -1.10766e-06
ExecutionTime = 10.9835 s  ClockTime = 22 s

volFieldValue volAvgFinTemperature write:
    volAverage() of T = 364.779

volFieldValue volAvgHeaterTemperature write:
    volAverage() of T = 379.197

surfaceFieldValue averageTempHeaterFinInterface write:
    areaAverage(heater_to_fins) of T = 366.707

Region: fluid Courant Number mean: 1304.24 max: 53653.4
Region: fins Diffusion Number mean: 117.318 max: 126097
Region: heater Diffusion Number mean: 71.7954 max: 522.217
Time = 35s


Solving for solid region fins
GAMG:  Solving for e, Initial residual = 0.168653, Final residual = 0.00462462, No Iterations 1
Min/max T:364.016 368.888

Solving for solid region heater
GAMG:  Solving for e, Initial residual = 0.0561945, Final residual = 1.9059e-05, No Iterations 1
Min/max T:367.764 386.933

Solving for fluid region fluid
DILUPBiCGStab:  Solving for Ux, Initial residual = 0.0014427, Final residual = 6.07066e-05, No Iterations 1
DILUPBiCGStab:  Solving for Uy, Initial residual = 0.00263674, Final residual = 0.000111382, No Iterations 1
DILUPBiCGStab:  Solving for Uz, Initial residual = 0.00278142, Final residual = 0.000116113, No Iterations 1
DILUPBiCGStab:  Solving for h, Initial residual = 0.00203306, Final residual = 0.000126992, No Iterations 1
Min/max T:296.763 368.707
GAMG:  Solving for p_rgh, Initial residual = 0.00504517, Final residual = 2.0954e-05, No Iterations 3
GAMG:  Solving for p_rgh, Initial residual = 0.000728478, Final residual = 3.42559e-06, No Iterations 3
GAMG:  Solving for p_rgh, Initial residual = 0.000116775, Final residual = 7.75882e-07, No Iterations 3
time step continuity errors : sum local = 4.57851e-06, global = -1.10855e-06, cumulative = -1.10855e-06
ExecutionTime = 11.1478 s  ClockTime = 23 s

volFieldValue volAvgFinTemperature write:
    volAverage() of T = 366.597

volFieldValue volAvgHeaterTemperature write:
    volAverage() of T = 381.067

surfaceFieldValue averageTempHeaterFinInterface write:
    areaAverage(heater_to_fins) of T = 368.581

Region: fluid Courant Number mean: 1304.13 max: 53401.2
Region: fins Diffusion Number mean: 117.318 max: 126097
Region: heater Diffusion Number mean: 71.7954 max: 522.217
Time = 36s


Solving for solid region fins
GAMG:  Solving for e, Initial residual = 0.164175, Final residual = 0.00452686, No Iterations 1
Min/max T:365.811 370.756

Solving for solid region heater
GAMG:  Solving for e, Initial residual = 0.0557561, Final residual = 1.90549e-05, No Iterations 1
Min/max T:369.616 388.789

Solving for fluid region fluid
DILUPBiCGStab:  Solving for Ux, Initial residual = 0.00141771, Final residual = 5.9561e-05, No Iterations 1
DILUPBiCGStab:  Solving for Uy, Initial residual = 0.00257972, Final residual = 0.00010888, No Iterations 1
DILUPBiCGStab:  Solving for Uz, Initial residual = 0.0026925, Final residual = 0.000112139, No Iterations 1
DILUPBiCGStab:  Solving for h, Initial residual = 0.00197243, Final residual = 0.000121871, No Iterations 1
Min/max T:296.762 370.57
GAMG:  Solving for p_rgh, Initial residual = 0.00498799, Final residual = 2.14112e-05, No Iterations 3
GAMG:  Solving for p_rgh, Initial residual = 0.000725219, Final residual = 3.50577e-06, No Iterations 3
GAMG:  Solving for p_rgh, Initial residual = 0.000118215, Final residual = 8.02417e-07, No Iterations 3
time step continuity errors : sum local = 4.73982e-06, global = -1.15681e-06, cumulative = -1.15681e-06
ExecutionTime = 11.3097 s  ClockTime = 23 s

volFieldValue volAvgFinTemperature write:
    volAverage() of T = 368.401

volFieldValue volAvgHeaterTemperature write:
    volAverage() of T = 382.923

surfaceFieldValue averageTempHeaterFinInterface write:
    areaAverage(heater_to_fins) of T = 370.441

Region: fluid Courant Number mean: 1304.02 max: 53147.4
Region: fins Diffusion Number mean: 117.318 max: 126097
Region: heater Diffusion Number mean: 71.7954 max: 522.217
Time = 37s


Solving for solid region fins
GAMG:  Solving for e, Initial residual = 0.159864, Final residual = 0.00442488, No Iterations 1
Min/max T:367.592 372.61

Solving for solid region heater
GAMG:  Solving for e, Initial residual = 0.0553214, Final residual = 1.90208e-05, No Iterations 1
Min/max T:371.454 390.632

Solving for fluid region fluid
DILUPBiCGStab:  Solving for Ux, Initial residual = 0.00139312, Final residual = 5.84386e-05, No Iterations 1
DILUPBiCGStab:  Solving for Uy, Initial residual = 0.00252805, Final residual = 0.000106502, No Iterations 1
DILUPBiCGStab:  Solving for Uz, Initial residual = 0.0026074, Final residual = 0.000108294, No Iterations 1
DILUPBiCGStab:  Solving for h, Initial residual = 0.00191401, Final residual = 0.000116611, No Iterations 1
Min/max T:296.761 372.42
GAMG:  Solving for p_rgh, Initial residual = 0.00511317, Final residual = 2.46395e-05, No Iterations 3
GAMG:  Solving for p_rgh, Initial residual = 0.000759809, Final residual = 4.2472e-06, No Iterations 3
GAMG:  Solving for p_rgh, Initial residual = 0.000127507, Final residual = 1.05785e-06, No Iterations 3
time step continuity errors : sum local = 6.25381e-06, global = -1.51815e-06, cumulative = -1.51815e-06
ExecutionTime = 11.4724 s  ClockTime = 23 s

volFieldValue volAvgFinTemperature write:
    volAverage() of T = 370.192

volFieldValue volAvgHeaterTemperature write:
    volAverage() of T = 384.765

surfaceFieldValue averageTempHeaterFinInterface write:
    areaAverage(heater_to_fins) of T = 372.287

Region: fluid Courant Number mean: 1303.91 max: 52891.4
Region: fins Diffusion Number mean: 117.318 max: 126097
Region: heater Diffusion Number mean: 71.7954 max: 522.217
Time = 38s


Solving for solid region fins
GAMG:  Solving for e, Initial residual = 0.15572, Final residual = 0.00431429, No Iterations 1
Min/max T:369.36 374.45

Solving for solid region heater
GAMG:  Solving for e, Initial residual = 0.0548938, Final residual = 1.89285e-05, No Iterations 1
Min/max T:373.278 392.461

Solving for fluid region fluid
DILUPBiCGStab:  Solving for Ux, Initial residual = 0.00136875, Final residual = 5.73459e-05, No Iterations 1
DILUPBiCGStab:  Solving for Uy, Initial residual = 0.00248086, Final residual = 0.000104283, No Iterations 1
DILUPBiCGStab:  Solving for Uz, Initial residual = 0.00252814, Final residual = 0.000104655, No Iterations 1
DILUPBiCGStab:  Solving for h, Initial residual = 0.00185887, Final residual = 0.000111961, No Iterations 1
Min/max T:296.76 374.257
GAMG:  Solving for p_rgh, Initial residual = 0.00478033, Final residual = 4.74534e-05, No Iterations 2
GAMG:  Solving for p_rgh, Initial residual = 0.000650624, Final residual = 5.13884e-06, No Iterations 3
GAMG:  Solving for p_rgh, Initial residual = 0.000133975, Final residual = 9.01837e-07, No Iterations 3
time step continuity errors : sum local = 5.33657e-06, global = -1.20161e-06, cumulative = -1.20161e-06
ExecutionTime = 11.6209 s  ClockTime = 24 s

volFieldValue volAvgFinTemperature write:
    volAverage() of T = 371.97

volFieldValue volAvgHeaterTemperature write:
    volAverage() of T = 386.594

surfaceFieldValue averageTempHeaterFinInterface write:
    areaAverage(heater_to_fins) of T = 374.12

Region: fluid Courant Number mean: 1303.81 max: 52632.5
Region: fins Diffusion Number mean: 117.318 max: 126097
Region: heater Diffusion Number mean: 71.7954 max: 522.217
Time = 39s


Solving for solid region fins
GAMG:  Solving for e, Initial residual = 0.151748, Final residual = 0.00421719, No Iterations 1
Min/max T:371.114 376.277

Solving for solid region heater
GAMG:  Solving for e, Initial residual = 0.0544632, Final residual = 1.88949e-05, No Iterations 1
Min/max T:375.09 394.276

Solving for fluid region fluid
DILUPBiCGStab:  Solving for Ux, Initial residual = 0.0013446, Final residual = 5.62555e-05, No Iterations 1
DILUPBiCGStab:  Solving for Uy, Initial residual = 0.00243427, Final residual = 0.000102243, No Iterations 1
DILUPBiCGStab:  Solving for Uz, Initial residual = 0.00244638, Final residual = 0.000100961, No Iterations 1
DILUPBiCGStab:  Solving for h, Initial residual = 0.00180703, Final residual = 0.000107722, No Iterations 1
Min/max T:296.759 376.08
GAMG:  Solving for p_rgh, Initial residual = 0.00463359, Final residual = 1.84724e-05, No Iterations 3
GAMG:  Solving for p_rgh, Initial residual = 0.000657487, Final residual = 2.9933e-06, No Iterations 3
GAMG:  Solving for p_rgh, Initial residual = 0.000103021, Final residual = 6.90426e-07, No Iterations 3
time step continuity errors : sum local = 4.08982e-06, global = -9.65731e-07, cumulative = -9.65731e-07
ExecutionTime = 11.7824 s  ClockTime = 24 s

volFieldValue volAvgFinTemperature write:
    volAverage() of T = 373.734

volFieldValue volAvgHeaterTemperature write:
    volAverage() of T = 388.409

surfaceFieldValue averageTempHeaterFinInterface write:
    areaAverage(heater_to_fins) of T = 375.939

Region: fluid Courant Number mean: 1303.7 max: 52370.6
Region: fins Diffusion Number mean: 117.318 max: 126097
Region: heater Diffusion Number mean: 71.7954 max: 522.217
Time = 40s


Solving for solid region fins
GAMG:  Solving for e, Initial residual = 0.147928, Final residual = 0.00412353, No Iterations 1
Min/max T:372.856 378.091

Solving for solid region heater
GAMG:  Solving for e, Initial residual = 0.0540359, Final residual = 1.88433e-05, No Iterations 1
Min/max T:376.887 396.079

Solving for fluid region fluid
DILUPBiCGStab:  Solving for Ux, Initial residual = 0.00132071, Final residual = 5.52073e-05, No Iterations 1
DILUPBiCGStab:  Solving for Uy, Initial residual = 0.00238968, Final residual = 0.00010024, No Iterations 1
DILUPBiCGStab:  Solving for Uz, Initial residual = 0.0023693, Final residual = 9.74747e-05, No Iterations 1
DILUPBiCGStab:  Solving for h, Initial residual = 0.00175482, Final residual = 0.000103567, No Iterations 1
Min/max T:296.758 377.89
GAMG:  Solving for p_rgh, Initial residual = 0.00447009, Final residual = 1.76361e-05, No Iterations 3
GAMG:  Solving for p_rgh, Initial residual = 0.000640806, Final residual = 2.86634e-06, No Iterations 3
GAMG:  Solving for p_rgh, Initial residual = 0.000100334, Final residual = 6.57169e-07, No Iterations 3
time step continuity errors : sum local = 3.897e-06, global = -9.36616e-07, cumulative = -9.36616e-07
ExecutionTime = 11.958 s  ClockTime = 24 s

volFieldValue volAvgFinTemperature write:
    volAverage() of T = 375.485

volFieldValue volAvgHeaterTemperature write:
    volAverage() of T = 390.212

surfaceFieldValue averageTempHeaterFinInterface write:
    areaAverage(heater_to_fins) of T = 377.746

Region: fluid Courant Number mean: 1303.6 max: 52105.7
Region: fins Diffusion Number mean: 117.318 max: 126097
Region: heater Diffusion Number mean: 71.7954 max: 522.217
Time = 41s


Solving for solid region fins
GAMG:  Solving for e, Initial residual = 0.144252, Final residual = 0.00402943, No Iterations 1
Min/max T:374.584 379.892

Solving for solid region heater
GAMG:  Solving for e, Initial residual = 0.053612, Final residual = 1.87718e-05, No Iterations 1
Min/max T:378.672 397.868

Solving for fluid region fluid
DILUPBiCGStab:  Solving for Ux, Initial residual = 0.00129732, Final residual = 5.41984e-05, No Iterations 1
DILUPBiCGStab:  Solving for Uy, Initial residual = 0.00234941, Final residual = 9.84123e-05, No Iterations 1
DILUPBiCGStab:  Solving for Uz, Initial residual = 0.00229455, Final residual = 9.41306e-05, No Iterations 1
DILUPBiCGStab:  Solving for h, Initial residual = 0.00170506, Final residual = 9.94879e-05, No Iterations 1
Min/max T:296.757 379.686
GAMG:  Solving for p_rgh, Initial residual = 0.00436177, Final residual = 1.71087e-05, No Iterations 3
GAMG:  Solving for p_rgh, Initial residual = 0.000627278, Final residual = 6.26675e-06, No Iterations 2
GAMG:  Solving for p_rgh, Initial residual = 9.1156e-05, Final residual = 4.41494e-07, No Iterations 4
time step continuity errors : sum local = 2.62094e-06, global = -6.64705e-07, cumulative = -6.64705e-07
ExecutionTime = 12.1223 s  ClockTime = 25 s

volFieldValue volAvgFinTemperature write:
    volAverage() of T = 377.224

volFieldValue volAvgHeaterTemperature write:
    volAverage() of T = 392

surfaceFieldValue averageTempHeaterFinInterface write:
    areaAverage(heater_to_fins) of T = 379.538

Region: fluid Courant Number mean: 1303.49 max: 51838
Region: fins Diffusion Number mean: 117.318 max: 126097
Region: heater Diffusion Number mean: 71.7954 max: 522.217
Time = 42s


Solving for solid region fins
GAMG:  Solving for e, Initial residual = 0.140719, Final residual = 0.0039378, No Iterations 1
Min/max T:376.3 381.679

Solving for solid region heater
GAMG:  Solving for e, Initial residual = 0.0531909, Final residual = 1.86878e-05, No Iterations 1
Min/max T:380.443 399.644

Solving for fluid region fluid
DILUPBiCGStab:  Solving for Ux, Initial residual = 0.00127433, Final residual = 5.32028e-05, No Iterations 1
DILUPBiCGStab:  Solving for Uy, Initial residual = 0.00231186, Final residual = 9.66905e-05, No Iterations 1
DILUPBiCGStab:  Solving for Uz, Initial residual = 0.00222289, Final residual = 9.09208e-05, No Iterations 1
DILUPBiCGStab:  Solving for h, Initial residual = 0.00165789, Final residual = 9.55399e-05, No Iterations 1
Min/max T:296.755 381.469
GAMG:  Solving for p_rgh, Initial residual = 0.004286, Final residual = 4.23179e-05, No Iterations 2
GAMG:  Solving for p_rgh, Initial residual = 0.000593437, Final residual = 4.53967e-06, No Iterations 3
GAMG:  Solving for p_rgh, Initial residual = 0.00011938, Final residual = 7.79188e-07, No Iterations 3
time step continuity errors : sum local = 4.63054e-06, global = -1.06367e-06, cumulative = -1.06367e-06
ExecutionTime = 12.2884 s  ClockTime = 25 s

volFieldValue volAvgFinTemperature write:
    volAverage() of T = 378.949

volFieldValue volAvgHeaterTemperature write:
    volAverage() of T = 393.776

surfaceFieldValue averageTempHeaterFinInterface write:
    areaAverage(heater_to_fins) of T = 381.318

Region: fluid Courant Number mean: 1303.39 max: 51567.9
Region: fins Diffusion Number mean: 117.318 max: 126097
Region: heater Diffusion Number mean: 71.7954 max: 522.217
Time = 43s


Solving for solid region fins
GAMG:  Solving for e, Initial residual = 0.137325, Final residual = 0.00384711, No Iterations 1
Min/max T:378.002 383.453

Solving for solid region heater
GAMG:  Solving for e, Initial residual = 0.0527733, Final residual = 1.8586e-05, No Iterations 1
Min/max T:382.201 401.406

Solving for fluid region fluid
DILUPBiCGStab:  Solving for Ux, Initial residual = 0.00125144, Final residual = 5.22033e-05, No Iterations 1
DILUPBiCGStab:  Solving for Uy, Initial residual = 0.00227619, Final residual = 9.50584e-05, No Iterations 1
DILUPBiCGStab:  Solving for Uz, Initial residual = 0.00215404, Final residual = 8.78517e-05, No Iterations 1
DILUPBiCGStab:  Solving for h, Initial residual = 0.00161176, Final residual = 9.17167e-05, No Iterations 1
Min/max T:296.754 383.239
GAMG:  Solving for p_rgh, Initial residual = 0.00418981, Final residual = 4.17958e-05, No Iterations 2
GAMG:  Solving for p_rgh, Initial residual = 0.000580257, Final residual = 4.48142e-06, No Iterations 3
GAMG:  Solving for p_rgh, Initial residual = 0.000118127, Final residual = 7.75515e-07, No Iterations 3
time step continuity errors : sum local = 4.6138e-06, global = -1.13407e-06, cumulative = -1.13407e-06
ExecutionTime = 12.4472 s  ClockTime = 25 s

volFieldValue volAvgFinTemperature write:
    volAverage() of T = 380.662

volFieldValue volAvgHeaterTemperature write:
    volAverage() of T = 395.539

surfaceFieldValue averageTempHeaterFinInterface write:
    areaAverage(heater_to_fins) of T = 383.084

Region: fluid Courant Number mean: 1303.29 max: 51295.9
Region: fins Diffusion Number mean: 117.318 max: 126097
Region: heater Diffusion Number mean: 71.7954 max: 522.217
Time = 44s


Solving for solid region fins
GAMG:  Solving for e, Initial residual = 0.134061, Final residual = 0.00375746, No Iterations 1
Min/max T:379.692 385.214

Solving for solid region heater
GAMG:  Solving for e, Initial residual = 0.0523597, Final residual = 1.84686e-05, No Iterations 1
Min/max T:383.947 403.156

Solving for fluid region fluid
DILUPBiCGStab:  Solving for Ux, Initial residual = 0.00122905, Final residual = 5.12257e-05, No Iterations 1
DILUPBiCGStab:  Solving for Uy, Initial residual = 0.00224377, Final residual = 9.3537e-05, No Iterations 1
DILUPBiCGStab:  Solving for Uz, Initial residual = 0.00208816, Final residual = 8.49425e-05, No Iterations 1
DILUPBiCGStab:  Solving for h, Initial residual = 0.00156702, Final residual = 8.79856e-05, No Iterations 1
Min/max T:296.752 384.996
GAMG:  Solving for p_rgh, Initial residual = 0.00408985, Final residual = 4.06331e-05, No Iterations 2
GAMG:  Solving for p_rgh, Initial residual = 0.000569232, Final residual = 4.32928e-06, No Iterations 3
GAMG:  Solving for p_rgh, Initial residual = 0.000114849, Final residual = 7.47467e-07, No Iterations 3
time step continuity errors : sum local = 4.45172e-06, global = -1.07482e-06, cumulative = -1.07482e-06
ExecutionTime = 12.6033 s  ClockTime = 26 s

volFieldValue volAvgFinTemperature write:
    volAverage() of T = 382.361

volFieldValue volAvgHeaterTemperature write:
    volAverage() of T = 397.288

surfaceFieldValue averageTempHeaterFinInterface write:
    areaAverage(heater_to_fins) of T = 384.838

Region: fluid Courant Number mean: 1303.19 max: 51022.6
Region: fins Diffusion Number mean: 117.318 max: 126097
Region: heater Diffusion Number mean: 71.7954 max: 522.217
Time = 45s


Solving for solid region fins
GAMG:  Solving for e, Initial residual = 0.130925, Final residual = 0.00367222, No Iterations 1
Min/max T:381.37 386.962

Solving for solid region heater
GAMG:  Solving for e, Initial residual = 0.0519492, Final residual = 1.83484e-05, No Iterations 1
Min/max T:385.679 404.893

Solving for fluid region fluid
DILUPBiCGStab:  Solving for Ux, Initial residual = 0.00120666, Final residual = 5.02494e-05, No Iterations 1
DILUPBiCGStab:  Solving for Uy, Initial residual = 0.00221377, Final residual = 9.21607e-05, No Iterations 1
DILUPBiCGStab:  Solving for Uz, Initial residual = 0.00202528, Final residual = 8.21883e-05, No Iterations 1
DILUPBiCGStab:  Solving for h, Initial residual = 0.0015242, Final residual = 8.44277e-05, No Iterations 1
Min/max T:296.75 386.74
GAMG:  Solving for p_rgh, Initial residual = 0.0039979, Final residual = 3.99111e-05, No Iterations 2
GAMG:  Solving for p_rgh, Initial residual = 0.000561081, Final residual = 4.25678e-06, No Iterations 3
[...]
DILUPBiCGStab:  Solving for Uy, Initial residual = 4.84798e-09, Final residual = 4.84798e-09, No Iterations 0
DILUPBiCGStab:  Solving for Uz, Initial residual = 1.34009e-09, Final residual = 1.34009e-09, No Iterations 0
DILUPBiCGStab:  Solving for h, Initial residual = 0.00040292, Final residual = 1.26748e-05, No Iterations 1
Min/max T:296.344 619.687
GAMG:  Solving for p_rgh, Initial residual = 6.52444e-08, Final residual = 6.52444e-08, No Iterations 0
GAMG:  Solving for p_rgh, Initial residual = 6.52444e-08, Final residual = 6.52444e-08, No Iterations 0
GAMG:  Solving for p_rgh, Initial residual = 6.52444e-08, Final residual = 6.52444e-08, No Iterations 0
time step continuity errors : sum local = 4.18733e-07, global = 3.83165e-10, cumulative = 3.83165e-10
ExecutionTime = 388.544 s  ClockTime = 739 s

volFieldValue volAvgFinTemperature write:
    volAverage() of T = 609.155

volFieldValue volAvgHeaterTemperature write:
    volAverage() of T = 630.796

surfaceFieldValue averageTempHeaterFinInterface write:
    areaAverage(heater_to_fins) of T = 618.873

Region: fluid Courant Number mean: 1295.72 max: 39478.9
Region: fins Diffusion Number mean: 117.318 max: 126097
Region: heater Diffusion Number mean: 71.7954 max: 522.217
Time = 1990s


Solving for solid region fins
GAMG:  Solving for e, Initial residual = 9.95577e-07, Final residual = 9.95577e-07, No Iterations 0
Min/max T:605.131 620.829

Solving for solid region heater
GAMG:  Solving for e, Initial residual = 4.29093e-07, Final residual = 4.29093e-07, No Iterations 0
Min/max T:615.175 636.756

Solving for fluid region fluid
DILUPBiCGStab:  Solving for Ux, Initial residual = 3.51915e-10, Final residual = 3.51915e-10, No Iterations 0
DILUPBiCGStab:  Solving for Uy, Initial residual = 4.50224e-09, Final residual = 4.50224e-09, No Iterations 0
DILUPBiCGStab:  Solving for Uz, Initial residual = 1.24975e-09, Final residual = 1.24975e-09, No Iterations 0
DILUPBiCGStab:  Solving for h, Initial residual = 0.00040292, Final residual = 1.26748e-05, No Iterations 1
Min/max T:296.344 619.687
GAMG:  Solving for p_rgh, Initial residual = 8.85196e-08, Final residual = 8.85196e-08, No Iterations 0
GAMG:  Solving for p_rgh, Initial residual = 8.85196e-08, Final residual = 8.85196e-08, No Iterations 0
GAMG:  Solving for p_rgh, Initial residual = 8.85196e-08, Final residual = 8.85196e-08, No Iterations 0
time step continuity errors : sum local = 5.68111e-07, global = 2.55599e-10, cumulative = 2.55599e-10
ExecutionTime = 388.732 s  ClockTime = 739 s

volFieldValue volAvgFinTemperature write:
    volAverage() of T = 609.155

volFieldValue volAvgHeaterTemperature write:
    volAverage() of T = 630.796

surfaceFieldValue averageTempHeaterFinInterface write:
    areaAverage(heater_to_fins) of T = 618.873

Region: fluid Courant Number mean: 1295.72 max: 39478.9
Region: fins Diffusion Number mean: 117.318 max: 126097
Region: heater Diffusion Number mean: 71.7954 max: 522.217
Time = 1991s


Solving for solid region fins
GAMG:  Solving for e, Initial residual = 9.95718e-07, Final residual = 9.95718e-07, No Iterations 0
Min/max T:605.131 620.829

Solving for solid region heater
GAMG:  Solving for e, Initial residual = 4.29094e-07, Final residual = 4.29094e-07, No Iterations 0
Min/max T:615.175 636.756

Solving for fluid region fluid
DILUPBiCGStab:  Solving for Ux, Initial residual = 3.47877e-10, Final residual = 3.47877e-10, No Iterations 0
DILUPBiCGStab:  Solving for Uy, Initial residual = 4.53299e-09, Final residual = 4.53299e-09, No Iterations 0
DILUPBiCGStab:  Solving for Uz, Initial residual = 1.21464e-09, Final residual = 1.21464e-09, No Iterations 0
DILUPBiCGStab:  Solving for h, Initial residual = 0.00040292, Final residual = 1.26748e-05, No Iterations 1
Min/max T:296.344 619.687
GAMG:  Solving for p_rgh, Initial residual = 1.11949e-07, Final residual = 1.07124e-08, No Iterations 1
GAMG:  Solving for p_rgh, Initial residual = 5.55919e-08, Final residual = 5.55919e-08, No Iterations 0
GAMG:  Solving for p_rgh, Initial residual = 5.55919e-08, Final residual = 5.55919e-08, No Iterations 0
time step continuity errors : sum local = 3.56784e-07, global = 1.26338e-10, cumulative = 1.26338e-10
ExecutionTime = 388.949 s  ClockTime = 739 s

volFieldValue volAvgFinTemperature write:
    volAverage() of T = 609.155

volFieldValue volAvgHeaterTemperature write:
    volAverage() of T = 630.796

surfaceFieldValue averageTempHeaterFinInterface write:
    areaAverage(heater_to_fins) of T = 618.873

Region: fluid Courant Number mean: 1295.72 max: 39478.9
Region: fins Diffusion Number mean: 117.318 max: 126097
Region: heater Diffusion Number mean: 71.7954 max: 522.217
Time = 1992s


Solving for solid region fins
GAMG:  Solving for e, Initial residual = 9.95879e-07, Final residual = 9.95879e-07, No Iterations 0
Min/max T:605.131 620.829

Solving for solid region heater
GAMG:  Solving for e, Initial residual = 4.29093e-07, Final residual = 4.29093e-07, No Iterations 0
Min/max T:615.175 636.756

Solving for fluid region fluid
DILUPBiCGStab:  Solving for Ux, Initial residual = 5.92469e-10, Final residual = 5.92469e-10, No Iterations 0
DILUPBiCGStab:  Solving for Uy, Initial residual = 6.94112e-09, Final residual = 6.94112e-09, No Iterations 0
DILUPBiCGStab:  Solving for Uz, Initial residual = 1.95296e-09, Final residual = 1.95296e-09, No Iterations 0
DILUPBiCGStab:  Solving for h, Initial residual = 0.000402919, Final residual = 1.2675e-05, No Iterations 1
Min/max T:296.344 619.687
GAMG:  Solving for p_rgh, Initial residual = 1.0763e-07, Final residual = 6.25873e-09, No Iterations 1
GAMG:  Solving for p_rgh, Initial residual = 6.77362e-08, Final residual = 6.77362e-08, No Iterations 0
GAMG:  Solving for p_rgh, Initial residual = 6.77362e-08, Final residual = 6.77362e-08, No Iterations 0
time step continuity errors : sum local = 4.34725e-07, global = -2.19349e-11, cumulative = -2.19349e-11
ExecutionTime = 389.245 s  ClockTime = 740 s

volFieldValue volAvgFinTemperature write:
    volAverage() of T = 609.155

volFieldValue volAvgHeaterTemperature write:
    volAverage() of T = 630.796

surfaceFieldValue averageTempHeaterFinInterface write:
    areaAverage(heater_to_fins) of T = 618.873

Region: fluid Courant Number mean: 1295.72 max: 39478.9
Region: fins Diffusion Number mean: 117.318 max: 126097
Region: heater Diffusion Number mean: 71.7954 max: 522.217
Time = 1993s


Solving for solid region fins
GAMG:  Solving for e, Initial residual = 9.95326e-07, Final residual = 9.95326e-07, No Iterations 0
Min/max T:605.131 620.829

Solving for solid region heater
GAMG:  Solving for e, Initial residual = 4.29094e-07, Final residual = 4.29094e-07, No Iterations 0
Min/max T:615.175 636.756

Solving for fluid region fluid
DILUPBiCGStab:  Solving for Ux, Initial residual = 5.62693e-10, Final residual = 5.62693e-10, No Iterations 0
DILUPBiCGStab:  Solving for Uy, Initial residual = 7.88255e-09, Final residual = 7.88255e-09, No Iterations 0
DILUPBiCGStab:  Solving for Uz, Initial residual = 2.06599e-09, Final residual = 2.06599e-09, No Iterations 0
DILUPBiCGStab:  Solving for h, Initial residual = 0.000402921, Final residual = 1.26748e-05, No Iterations 1
Min/max T:296.344 619.687
GAMG:  Solving for p_rgh, Initial residual = 9.81887e-08, Final residual = 9.81887e-08, No Iterations 0
GAMG:  Solving for p_rgh, Initial residual = 9.81887e-08, Final residual = 9.81887e-08, No Iterations 0
GAMG:  Solving for p_rgh, Initial residual = 9.81887e-08, Final residual = 9.81887e-08, No Iterations 0
time step continuity errors : sum local = 6.30167e-07, global = -1.72161e-10, cumulative = -1.72161e-10
ExecutionTime = 389.485 s  ClockTime = 741 s

volFieldValue volAvgFinTemperature write:
    volAverage() of T = 609.155

volFieldValue volAvgHeaterTemperature write:
    volAverage() of T = 630.796

surfaceFieldValue averageTempHeaterFinInterface write:
    areaAverage(heater_to_fins) of T = 618.873

Region: fluid Courant Number mean: 1295.72 max: 39478.9
Region: fins Diffusion Number mean: 117.318 max: 126097
Region: heater Diffusion Number mean: 71.7954 max: 522.217
Time = 1994s


Solving for solid region fins
GAMG:  Solving for e, Initial residual = 9.9554e-07, Final residual = 9.9554e-07, No Iterations 0
Min/max T:605.131 620.829

Solving for solid region heater
GAMG:  Solving for e, Initial residual = 4.29093e-07, Final residual = 4.29093e-07, No Iterations 0
Min/max T:615.175 636.756

Solving for fluid region fluid
DILUPBiCGStab:  Solving for Ux, Initial residual = 5.32611e-10, Final residual = 5.32611e-10, No Iterations 0
DILUPBiCGStab:  Solving for Uy, Initial residual = 7.12719e-09, Final residual = 7.12719e-09, No Iterations 0
DILUPBiCGStab:  Solving for Uz, Initial residual = 1.88039e-09, Final residual = 1.88039e-09, No Iterations 0
DILUPBiCGStab:  Solving for h, Initial residual = 0.00040292, Final residual = 1.26747e-05, No Iterations 1
Min/max T:296.344 619.687
GAMG:  Solving for p_rgh, Initial residual = 1.43938e-07, Final residual = 9.38028e-09, No Iterations 1
GAMG:  Solving for p_rgh, Initial residual = 9.98281e-08, Final residual = 9.98281e-08, No Iterations 0
GAMG:  Solving for p_rgh, Initial residual = 9.98281e-08, Final residual = 9.98281e-08, No Iterations 0
time step continuity errors : sum local = 6.40688e-07, global = -3.7396e-10, cumulative = -3.7396e-10
ExecutionTime = 389.715 s  ClockTime = 741 s

volFieldValue volAvgFinTemperature write:
    volAverage() of T = 609.155

volFieldValue volAvgHeaterTemperature write:
    volAverage() of T = 630.796

surfaceFieldValue averageTempHeaterFinInterface write:
    areaAverage(heater_to_fins) of T = 618.873

Region: fluid Courant Number mean: 1295.72 max: 39478.9
Region: fins Diffusion Number mean: 117.318 max: 126097
Region: heater Diffusion Number mean: 71.7954 max: 522.217
Time = 1995s


Solving for solid region fins
GAMG:  Solving for e, Initial residual = 9.95838e-07, Final residual = 9.95838e-07, No Iterations 0
Min/max T:605.131 620.829

Solving for solid region heater
GAMG:  Solving for e, Initial residual = 4.29094e-07, Final residual = 4.29094e-07, No Iterations 0
Min/max T:615.175 636.756

Solving for fluid region fluid
DILUPBiCGStab:  Solving for Ux, Initial residual = 8.06552e-10, Final residual = 8.06552e-10, No Iterations 0
DILUPBiCGStab:  Solving for Uy, Initial residual = 1.07853e-08, Final residual = 1.07853e-08, No Iterations 0
DILUPBiCGStab:  Solving for Uz, Initial residual = 2.74667e-09, Final residual = 2.74667e-09, No Iterations 0
DILUPBiCGStab:  Solving for h, Initial residual = 0.000402919, Final residual = 1.26751e-05, No Iterations 1
Min/max T:296.344 619.687
GAMG:  Solving for p_rgh, Initial residual = 1.79031e-07, Final residual = 9.44338e-09, No Iterations 1
GAMG:  Solving for p_rgh, Initial residual = 1.18695e-07, Final residual = 4.60267e-09, No Iterations 1
GAMG:  Solving for p_rgh, Initial residual = 5.56443e-08, Final residual = 5.56443e-08, No Iterations 0
time step continuity errors : sum local = 3.5712e-07, global = -2.52021e-10, cumulative = -2.52021e-10
ExecutionTime = 390.089 s  ClockTime = 742 s

volFieldValue volAvgFinTemperature write:
    volAverage() of T = 609.155

volFieldValue volAvgHeaterTemperature write:
    volAverage() of T = 630.796

surfaceFieldValue averageTempHeaterFinInterface write:
    areaAverage(heater_to_fins) of T = 618.873

Region: fluid Courant Number mean: 1295.72 max: 39478.9
Region: fins Diffusion Number mean: 117.318 max: 126097
Region: heater Diffusion Number mean: 71.7954 max: 522.217
Time = 1996s


Solving for solid region fins
GAMG:  Solving for e, Initial residual = 9.95081e-07, Final residual = 9.95081e-07, No Iterations 0
Min/max T:605.131 620.829

Solving for solid region heater
GAMG:  Solving for e, Initial residual = 4.29093e-07, Final residual = 4.29093e-07, No Iterations 0
Min/max T:615.175 636.756

Solving for fluid region fluid
DILUPBiCGStab:  Solving for Ux, Initial residual = 4.07415e-10, Final residual = 4.07415e-10, No Iterations 0
DILUPBiCGStab:  Solving for Uy, Initial residual = 4.779e-09, Final residual = 4.779e-09, No Iterations 0
DILUPBiCGStab:  Solving for Uz, Initial residual = 1.31434e-09, Final residual = 1.31434e-09, No Iterations 0
DILUPBiCGStab:  Solving for h, Initial residual = 0.00040292, Final residual = 1.2675e-05, No Iterations 1
Min/max T:296.344 619.687
GAMG:  Solving for p_rgh, Initial residual = 8.11663e-08, Final residual = 8.11663e-08, No Iterations 0
GAMG:  Solving for p_rgh, Initial residual = 8.11663e-08, Final residual = 8.11663e-08, No Iterations 0
GAMG:  Solving for p_rgh, Initial residual = 8.11663e-08, Final residual = 8.11663e-08, No Iterations 0
time step continuity errors : sum local = 5.20918e-07, global = -1.35278e-10, cumulative = -1.35278e-10
ExecutionTime = 390.323 s  ClockTime = 742 s

volFieldValue volAvgFinTemperature write:
    volAverage() of T = 609.155

volFieldValue volAvgHeaterTemperature write:
    volAverage() of T = 630.796

surfaceFieldValue averageTempHeaterFinInterface write:
    areaAverage(heater_to_fins) of T = 618.873

Region: fluid Courant Number mean: 1295.72 max: 39478.9
Region: fins Diffusion Number mean: 117.318 max: 126097
Region: heater Diffusion Number mean: 71.7954 max: 522.217
Time = 1997s


Solving for solid region fins
GAMG:  Solving for e, Initial residual = 9.94694e-07, Final residual = 9.94694e-07, No Iterations 0
Min/max T:605.131 620.829

Solving for solid region heater
GAMG:  Solving for e, Initial residual = 4.29094e-07, Final residual = 4.29094e-07, No Iterations 0
Min/max T:615.175 636.756

Solving for fluid region fluid
DILUPBiCGStab:  Solving for Ux, Initial residual = 3.83799e-10, Final residual = 3.83799e-10, No Iterations 0
DILUPBiCGStab:  Solving for Uy, Initial residual = 4.34275e-09, Final residual = 4.34275e-09, No Iterations 0
DILUPBiCGStab:  Solving for Uz, Initial residual = 1.21633e-09, Final residual = 1.21633e-09, No Iterations 0
DILUPBiCGStab:  Solving for h, Initial residual = 0.00040292, Final residual = 1.26751e-05, No Iterations 1
Min/max T:296.344 619.687
GAMG:  Solving for p_rgh, Initial residual = 1.09745e-07, Final residual = 6.07682e-09, No Iterations 1
GAMG:  Solving for p_rgh, Initial residual = 4.91834e-08, Final residual = 4.91834e-08, No Iterations 0
GAMG:  Solving for p_rgh, Initial residual = 4.91834e-08, Final residual = 4.91834e-08, No Iterations 0
time step continuity errors : sum local = 3.15655e-07, global = 1.42281e-11, cumulative = 1.42281e-11
ExecutionTime = 390.523 s  ClockTime = 743 s

volFieldValue volAvgFinTemperature write:
    volAverage() of T = 609.155

volFieldValue volAvgHeaterTemperature write:
    volAverage() of T = 630.796

surfaceFieldValue averageTempHeaterFinInterface write:
    areaAverage(heater_to_fins) of T = 618.873

Region: fluid Courant Number mean: 1295.72 max: 39478.9
Region: fins Diffusion Number mean: 117.318 max: 126097
Region: heater Diffusion Number mean: 71.7954 max: 522.217
Time = 1998s


Solving for solid region fins
GAMG:  Solving for e, Initial residual = 9.94436e-07, Final residual = 9.94436e-07, No Iterations 0
Min/max T:605.131 620.829

Solving for solid region heater
GAMG:  Solving for e, Initial residual = 4.29093e-07, Final residual = 4.29093e-07, No Iterations 0
Min/max T:615.175 636.756

Solving for fluid region fluid
DILUPBiCGStab:  Solving for Ux, Initial residual = 5.63061e-10, Final residual = 5.63061e-10, No Iterations 0
DILUPBiCGStab:  Solving for Uy, Initial residual = 6.14621e-09, Final residual = 6.14621e-09, No Iterations 0
DILUPBiCGStab:  Solving for Uz, Initial residual = 1.67139e-09, Final residual = 1.67139e-09, No Iterations 0
DILUPBiCGStab:  Solving for h, Initial residual = 0.000402921, Final residual = 1.26748e-05, No Iterations 1
Min/max T:296.344 619.687
GAMG:  Solving for p_rgh, Initial residual = 1.10446e-07, Final residual = 6.05622e-09, No Iterations 1
GAMG:  Solving for p_rgh, Initial residual = 7.47477e-08, Final residual = 7.47477e-08, No Iterations 0
GAMG:  Solving for p_rgh, Initial residual = 7.47477e-08, Final residual = 7.47477e-08, No Iterations 0
time step continuity errors : sum local = 4.79724e-07, global = 1.3025e-10, cumulative = 1.3025e-10
ExecutionTime = 390.756 s  ClockTime = 743 s

volFieldValue volAvgFinTemperature write:
    volAverage() of T = 609.155

volFieldValue volAvgHeaterTemperature write:
    volAverage() of T = 630.796

surfaceFieldValue averageTempHeaterFinInterface write:
    areaAverage(heater_to_fins) of T = 618.873

Region: fluid Courant Number mean: 1295.72 max: 39478.9
Region: fins Diffusion Number mean: 117.318 max: 126097
Region: heater Diffusion Number mean: 71.7954 max: 522.217
Time = 1999s


Solving for solid region fins
GAMG:  Solving for e, Initial residual = 9.94519e-07, Final residual = 9.94519e-07, No Iterations 0
Min/max T:605.131 620.829

Solving for solid region heater
GAMG:  Solving for e, Initial residual = 4.29094e-07, Final residual = 4.29094e-07, No Iterations 0
Min/max T:615.175 636.756

Solving for fluid region fluid
DILUPBiCGStab:  Solving for Ux, Initial residual = 4.63601e-10, Final residual = 4.63601e-10, No Iterations 0
DILUPBiCGStab:  Solving for Uy, Initial residual = 6.44825e-09, Final residual = 6.44825e-09, No Iterations 0
DILUPBiCGStab:  Solving for Uz, Initial residual = 1.69169e-09, Final residual = 1.69169e-09, No Iterations 0
DILUPBiCGStab:  Solving for h, Initial residual = 0.000402919, Final residual = 1.26751e-05, No Iterations 1
Min/max T:296.344 619.687
GAMG:  Solving for p_rgh, Initial residual = 1.06954e-07, Final residual = 5.01976e-09, No Iterations 1
GAMG:  Solving for p_rgh, Initial residual = 7.16044e-08, Final residual = 7.16044e-08, No Iterations 0
GAMG:  Solving for p_rgh, Initial residual = 7.16044e-08, Final residual = 7.16044e-08, No Iterations 0
time step continuity errors : sum local = 4.59551e-07, global = 2.673e-10, cumulative = 2.673e-10
ExecutionTime = 391.017 s  ClockTime = 744 s

volFieldValue volAvgFinTemperature write:
    volAverage() of T = 609.155

volFieldValue volAvgHeaterTemperature write:
    volAverage() of T = 630.796

surfaceFieldValue averageTempHeaterFinInterface write:
    areaAverage(heater_to_fins) of T = 618.873

Region: fluid Courant Number mean: 1295.72 max: 39478.9
Region: fins Diffusion Number mean: 117.318 max: 126097
Region: heater Diffusion Number mean: 71.7954 max: 522.217
Time = 2000s


Solving for solid region fins
GAMG:  Solving for e, Initial residual = 9.94263e-07, Final residual = 9.94263e-07, No Iterations 0
Min/max T:605.131 620.829

Solving for solid region heater
GAMG:  Solving for e, Initial residual = 4.29093e-07, Final residual = 4.29093e-07, No Iterations 0
Min/max T:615.175 636.756

Solving for fluid region fluid
DILUPBiCGStab:  Solving for Ux, Initial residual = 5.24039e-10, Final residual = 5.24039e-10, No Iterations 0
DILUPBiCGStab:  Solving for Uy, Initial residual = 6.40436e-09, Final residual = 6.40436e-09, No Iterations 0
DILUPBiCGStab:  Solving for Uz, Initial residual = 1.82875e-09, Final residual = 1.82875e-09, No Iterations 0
DILUPBiCGStab:  Solving for h, Initial residual = 0.000402921, Final residual = 1.26748e-05, No Iterations 1
Min/max T:296.344 619.687
GAMG:  Solving for p_rgh, Initial residual = 1.26105e-07, Final residual = 6.38212e-09, No Iterations 1
GAMG:  Solving for p_rgh, Initial residual = 8.37375e-08, Final residual = 8.37375e-08, No Iterations 0
GAMG:  Solving for p_rgh, Initial residual = 8.37375e-08, Final residual = 8.37375e-08, No Iterations 0
time step continuity errors : sum local = 5.3742e-07, global = 2.49573e-10, cumulative = 2.49573e-10
ExecutionTime = 391.655 s  ClockTime = 745 s

volFieldValue volAvgFinTemperature write:
    volAverage() of T = 609.155

volFieldValue volAvgHeaterTemperature write:
    volAverage() of T = 630.796

surfaceFieldValue averageTempHeaterFinInterface write:
    areaAverage(heater_to_fins) of T = 618.873

End

