/*---------------------------------------------------------------------------*\
  =========                 |
  \\      /  F ield         | OpenFOAM: The Open Source CFD Toolbox
   \\    /   O peration     | Website:  https://openfoam.org
    \\  /    A nd           | Version:  10
     \\/     M anipulation  |
\*---------------------------------------------------------------------------*/
Build  : 10-c4cf895ad8fa
Exec   : chtMultiRegionFoam
Date   : Nov 01 2023
Time   : 09:05:18
Host   : "alexesn"
PID    : 7541
I/O    : uncollated
Case   : /mnt/c/Users/sasch/OneDrive/Desktop/MEPhI/Project_practice/FOAM_project/heatExchanger/all_auto/case_0_20
nProcs : 1
sigFpe : Enabling floating point exception trapping (FOAM_SIGFPE).
fileModificationChecking : Monitoring run-time modified files using timeStampMaster (fileModificationSkew 10)
allowSystemOperations : Allowing user-supplied system call operations

// * * * * * * * * * * * * * * * * * * * * * * * * * * * * * * * * * * * * * //
Create time

Create fluid mesh for region fluid for time = 0

Create solid mesh for region fins for time = 0

Create solid mesh for region heater for time = 0


PIMPLE: Region fluid
PIMPLE: No convergence criteria found


PIMPLE: Region fins
PIMPLE: No convergence criteria found


PIMPLE: Region heater
PIMPLE: No convergence criteria found


PIMPLE: Operating solver in steady-state mode with 1 outer corrector
PIMPLE: Operating solver in SIMPLE mode


*** Reading fluid mesh thermophysical properties for region fluid

    Adding to thermoFluid

Selecting thermodynamics package 
{
    type            heRhoThermo;
    mixture         pureMixture;
    transport       const;
    thermo          hConst;
    equationOfState rhoConst;
    specie          specie;
    energy          sensibleEnthalpy;
}

    Adding to rhoFluid

    Adding to UFluid

    Adding to phiFluid

    Adding to gFluid

    Adding to hRefFluid

    Adding to pRefFluid

    Adding to ghFluid

    Adding to ghfFluid

    Adding to turbulenceFluid

Selecting turbulence model type laminar
Selecting laminar stress model Stokes
    Adding to thermophysicalTransport

Selecting thermophysical transport type laminar
Selecting default laminar thermophysical transport model unityLewisFourier
    Adding to reactionFluid

Combustion model not active: combustionProperties not found
Selecting combustion model none
    Adding to KFluid

    Adding to dpdtFluid

    Adding to fieldsFluid

    Adding MRF

No MRF models present

    Adding fvModelsFluid

    Adding fvConstraintsFluid

Creating fvConstraints from "system/fvConstraints"

Selecting finite volume constraint type limitTemperature
    Name: limitT
    - selecting all cells
    - selected 10967 cell(s) with volume 0.00149667
*** Reading solid mesh thermophysical properties for region fins

    Adding to thermoSolid

Selecting thermodynamics package 
{
    type            heSolidThermo;
    mixture         pureMixture;
    transport       constIsoSolid;
    thermo          eConst;
    equationOfState rhoConst;
    specie          specie;
    energy          sensibleInternalEnergy;
}

    Adding to fvModelsSolid

    Adding fvConstraintsSolid

*** Reading solid mesh thermophysical properties for region heater

    Adding to thermoSolid

Selecting thermodynamics package 
{
    type            heSolidThermo;
    mixture         pureMixture;
    transport       constIsoSolid;
    thermo          eConst;
    equationOfState rhoConst;
    specie          specie;
    energy          sensibleInternalEnergy;
}

    Adding to fvModelsSolid

Creating fvModels from "constant/fvModels"

Selecting finite volume model type heatSource
    Name: energySource
    - selecting all cells
    - selected 618 cell(s) with volume 1e-06
    Adding fvConstraintsSolid

Region: fluid Courant Number mean: 1330.73 max: 175354
Region: fins Diffusion Number mean: 126.447 max: 149517
Region: heater Diffusion Number mean: 72.17 max: 543.426








surfaceFieldValue averageTempHeaterFinInterface:
    total faces  = 56
    total area   = 0.0001


volFieldValue volAvgFinTemperature write:
    volAverage() of T = 296.9

volFieldValue volAvgHeaterTemperature write:
    volAverage() of T = 296.9

surfaceFieldValue averageTempHeaterFinInterface write:
    areaAverage(heater_to_fins) of T = 296.9

Region: fluid Courant Number mean: 1330.73 max: 175354
Region: fins Diffusion Number mean: 126.447 max: 149517
Region: heater Diffusion Number mean: 72.17 max: 543.426
Time = 1s


Solving for solid region fins
GAMG:  Solving for e, Initial residual = 0.984241, Final residual = 0.0457344, No Iterations 1
Min/max T:296.9 296.9

Solving for solid region heater
GAMG:  Solving for e, Initial residual = 1, Final residual = 0.0719701, No Iterations 3
Min/max T:296.9 314.576

Solving for fluid region fluid
DILUPBiCGStab:  Solving for Ux, Initial residual = 1, Final residual = 0.0244313, No Iterations 1
DILUPBiCGStab:  Solving for Uy, Initial residual = 1, Final residual = 0.0309194, No Iterations 1
DILUPBiCGStab:  Solving for Uz, Initial residual = 1, Final residual = 0.0293208, No Iterations 1
DILUPBiCGStab:  Solving for h, Initial residual = 1, Final residual = 0.0654832, No Iterations 1
Min/max T:295.63 297.758
GAMG:  Solving for p_rgh, Initial residual = 1, Final residual = 0.00717629, No Iterations 7
GAMG:  Solving for p_rgh, Initial residual = 0.405365, Final residual = 0.00240202, No Iterations 2
GAMG:  Solving for p_rgh, Initial residual = 0.0362951, Final residual = 0.000163253, No Iterations 3
time step continuity errors : sum local = 0.00741494, global = -0.00178302, cumulative = -0.00178302
ExecutionTime = 5.22071 s  ClockTime = 11 s

volFieldValue volAvgFinTemperature write:
    volAverage() of T = 296.9

volFieldValue volAvgHeaterTemperature write:
    volAverage() of T = 308.886

surfaceFieldValue averageTempHeaterFinInterface write:
    areaAverage(heater_to_fins) of T = 296.9

Region: fluid Courant Number mean: 1331.76 max: 72216.8
Region: fins Diffusion Number mean: 126.447 max: 149517
Region: heater Diffusion Number mean: 72.17 max: 543.426
Time = 2s


Solving for solid region fins
GAMG:  Solving for e, Initial residual = 1, Final residual = 0.0328669, No Iterations 1
Min/max T:296.899 299.53

Solving for solid region heater
GAMG:  Solving for e, Initial residual = 0.238323, Final residual = 0.00569742, No Iterations 1
Min/max T:298.712 316.887

Solving for fluid region fluid
DILUPBiCGStab:  Solving for Ux, Initial residual = 0.231822, Final residual = 0.0103841, No Iterations 1
DILUPBiCGStab:  Solving for Uy, Initial residual = 0.325147, Final residual = 0.0138156, No Iterations 1
DILUPBiCGStab:  Solving for Uz, Initial residual = 0.402949, Final residual = 0.0173955, No Iterations 1
DILUPBiCGStab:  Solving for h, Initial residual = 0.17336, Final residual = 0.0132722, No Iterations 1
Min/max T:294.157 299.294
GAMG:  Solving for p_rgh, Initial residual = 0.251047, Final residual = 0.00133758, No Iterations 6
GAMG:  Solving for p_rgh, Initial residual = 0.677782, Final residual = 0.00474931, No Iterations 2
GAMG:  Solving for p_rgh, Initial residual = 0.115355, Final residual = 0.000755834, No Iterations 3
time step continuity errors : sum local = 0.0177056, global = 0.00316817, cumulative = 0.00316817
ExecutionTime = 5.43844 s  ClockTime = 12 s

volFieldValue volAvgFinTemperature write:
    volAverage() of T = 299.093

volFieldValue volAvgHeaterTemperature write:
    volAverage() of T = 311.286

surfaceFieldValue averageTempHeaterFinInterface write:
    areaAverage(heater_to_fins) of T = 299.138

Region: fluid Courant Number mean: 1331.68 max: 77601.1
Region: fins Diffusion Number mean: 126.447 max: 149517
Region: heater Diffusion Number mean: 72.17 max: 543.426
Time = 3s


Solving for solid region fins
GAMG:  Solving for e, Initial residual = 0.572446, Final residual = 0.0109316, No Iterations 1
Min/max T:298.946 301.733

Solving for solid region heater
GAMG:  Solving for e, Initial residual = 0.0904463, Final residual = 0.00250289, No Iterations 1
Min/max T:300.983 319.432

Solving for fluid region fluid
DILUPBiCGStab:  Solving for Ux, Initial residual = 0.0955639, Final residual = 0.00422823, No Iterations 1
DILUPBiCGStab:  Solving for Uy, Initial residual = 0.214581, Final residual = 0.00899231, No Iterations 1
DILUPBiCGStab:  Solving for Uz, Initial residual = 0.334282, Final residual = 0.014543, No Iterations 1
DILUPBiCGStab:  Solving for h, Initial residual = 0.0927435, Final residual = 0.00800663, No Iterations 1
Min/max T:296.087 301.555
GAMG:  Solving for p_rgh, Initial residual = 0.200907, Final residual = 0.00108827, No Iterations 6
GAMG:  Solving for p_rgh, Initial residual = 0.667273, Final residual = 0.00434319, No Iterations 2
GAMG:  Solving for p_rgh, Initial residual = 0.109301, Final residual = 0.000682754, No Iterations 3
time step continuity errors : sum local = 0.00659838, global = -0.00121745, cumulative = -0.00121745
ExecutionTime = 5.64627 s  ClockTime = 12 s

volFieldValue volAvgFinTemperature write:
    volAverage() of T = 301.289

volFieldValue volAvgHeaterTemperature write:
    volAverage() of T = 313.722

surfaceFieldValue averageTempHeaterFinInterface write:
    areaAverage(heater_to_fins) of T = 301.378

Region: fluid Courant Number mean: 1331.3 max: 65760.8
Region: fins Diffusion Number mean: 126.447 max: 149517
Region: heater Diffusion Number mean: 72.17 max: 543.426
Time = 4s


Solving for solid region fins
GAMG:  Solving for e, Initial residual = 0.508641, Final residual = 0.010799, No Iterations 1
Min/max T:301.128 303.986

Solving for solid region heater
GAMG:  Solving for e, Initial residual = 0.078318, Final residual = 0.00152242, No Iterations 1
Min/max T:303.178 321.841

Solving for fluid region fluid
DILUPBiCGStab:  Solving for Ux, Initial residual = 0.0384406, Final residual = 0.00170428, No Iterations 1
DILUPBiCGStab:  Solving for Uy, Initial residual = 0.0704562, Final residual = 0.00301689, No Iterations 1
DILUPBiCGStab:  Solving for Uz, Initial residual = 0.0989268, Final residual = 0.0043027, No Iterations 1
DILUPBiCGStab:  Solving for h, Initial residual = 0.0331121, Final residual = 0.00304886, No Iterations 1
Min/max T:296.356 303.808
GAMG:  Solving for p_rgh, Initial residual = 0.165019, Final residual = 0.000874143, No Iterations 6
GAMG:  Solving for p_rgh, Initial residual = 0.395834, Final residual = 0.00254609, No Iterations 2
GAMG:  Solving for p_rgh, Initial residual = 0.0557391, Final residual = 0.00032725, No Iterations 3
time step continuity errors : sum local = 0.00248489, global = 0.000465722, cumulative = 0.000465722
ExecutionTime = 5.82437 s  ClockTime = 13 s

volFieldValue volAvgFinTemperature write:
    volAverage() of T = 303.469

volFieldValue volAvgHeaterTemperature write:
    volAverage() of T = 316.073

surfaceFieldValue averageTempHeaterFinInterface write:
    areaAverage(heater_to_fins) of T = 303.613

Region: fluid Courant Number mean: 1331.13 max: 49140
Region: fins Diffusion Number mean: 126.447 max: 149517
Region: heater Diffusion Number mean: 72.17 max: 543.426
Time = 5s


Solving for solid region fins
GAMG:  Solving for e, Initial residual = 0.47955, Final residual = 0.0112126, No Iterations 1
Min/max T:303.317 306.219

Solving for solid region heater
GAMG:  Solving for e, Initial residual = 0.0749777, Final residual = 0.000934925, No Iterations 1
Min/max T:305.383 324.174

Solving for fluid region fluid
DILUPBiCGStab:  Solving for Ux, Initial residual = 0.0158595, Final residual = 0.000684236, No Iterations 1
DILUPBiCGStab:  Solving for Uy, Initial residual = 0.0346511, Final residual = 0.00138905, No Iterations 1
DILUPBiCGStab:  Solving for Uz, Initial residual = 0.0472216, Final residual = 0.00205628, No Iterations 1
DILUPBiCGStab:  Solving for h, Initial residual = 0.0190945, Final residual = 0.00181641, No Iterations 1
Min/max T:296.776 306.043
GAMG:  Solving for p_rgh, Initial residual = 0.111675, Final residual = 0.00102204, No Iterations 5
GAMG:  Solving for p_rgh, Initial residual = 0.257692, Final residual = 0.00171205, No Iterations 2
GAMG:  Solving for p_rgh, Initial residual = 0.0340304, Final residual = 0.000215965, No Iterations 3
time step continuity errors : sum local = 0.00111531, global = -0.000220916, cumulative = -0.000220916
ExecutionTime = 5.98033 s  ClockTime = 13 s

volFieldValue volAvgFinTemperature write:
    volAverage() of T = 305.638

volFieldValue volAvgHeaterTemperature write:
    volAverage() of T = 318.37

surfaceFieldValue averageTempHeaterFinInterface write:
    areaAverage(heater_to_fins) of T = 305.842

Region: fluid Courant Number mean: 1330.91 max: 48823.2
Region: fins Diffusion Number mean: 126.447 max: 149517
Region: heater Diffusion Number mean: 72.17 max: 543.426
Time = 6s


Solving for solid region fins
GAMG:  Solving for e, Initial residual = 0.457345, Final residual = 0.0112368, No Iterations 1
Min/max T:305.508 308.434

Solving for solid region heater
GAMG:  Solving for e, Initial residual = 0.073133, Final residual = 0.000574289, No Iterations 1
Min/max T:307.585 326.456

Solving for fluid region fluid
DILUPBiCGStab:  Solving for Ux, Initial residual = 0.00776624, Final residual = 0.000340217, No Iterations 1
DILUPBiCGStab:  Solving for Uy, Initial residual = 0.015762, Final residual = 0.000651118, No Iterations 1
DILUPBiCGStab:  Solving for Uz, Initial residual = 0.0224456, Final residual = 0.000983104, No Iterations 1
DILUPBiCGStab:  Solving for h, Initial residual = 0.0133872, Final residual = 0.00120869, No Iterations 1
Min/max T:296.824 308.26
GAMG:  Solving for p_rgh, Initial residual = 0.0734839, Final residual = 0.000625546, No Iterations 5
GAMG:  Solving for p_rgh, Initial residual = 0.0931283, Final residual = 0.000592584, No Iterations 2
GAMG:  Solving for p_rgh, Initial residual = 0.0119763, Final residual = 6.45603e-05, No Iterations 3
time step continuity errors : sum local = 0.000380389, global = 5.73947e-05, cumulative = 5.73947e-05
ExecutionTime = 6.14323 s  ClockTime = 13 s

volFieldValue volAvgFinTemperature write:
    volAverage() of T = 307.793

volFieldValue volAvgHeaterTemperature write:
    volAverage() of T = 320.628

surfaceFieldValue averageTempHeaterFinInterface write:
    areaAverage(heater_to_fins) of T = 308.061

Region: fluid Courant Number mean: 1330.74 max: 48606.1
Region: fins Diffusion Number mean: 126.447 max: 149517
Region: heater Diffusion Number mean: 72.17 max: 543.426
Time = 7s


Solving for solid region fins
GAMG:  Solving for e, Initial residual = 0.436178, Final residual = 0.0111173, No Iterations 1
Min/max T:307.694 310.632

Solving for solid region heater
GAMG:  Solving for e, Initial residual = 0.0718071, Final residual = 0.00035282, No Iterations 1
Min/max T:309.779 328.699

Solving for fluid region fluid
DILUPBiCGStab:  Solving for Ux, Initial residual = 0.00396664, Final residual = 0.000158102, No Iterations 1
DILUPBiCGStab:  Solving for Uy, Initial residual = 0.00973793, Final residual = 0.0003299, No Iterations 1
DILUPBiCGStab:  Solving for Uz, Initial residual = 0.0124455, Final residual = 0.000490424, No Iterations 1
DILUPBiCGStab:  Solving for h, Initial residual = 0.0103379, Final residual = 0.000873437, No Iterations 1
Min/max T:296.872 310.46
GAMG:  Solving for p_rgh, Initial residual = 0.0416078, Final residual = 0.000264623, No Iterations 5
GAMG:  Solving for p_rgh, Initial residual = 0.0421563, Final residual = 0.000274638, No Iterations 2
GAMG:  Solving for p_rgh, Initial residual = 0.00541607, Final residual = 2.8553e-05, No Iterations 3
time step continuity errors : sum local = 0.00015651, global = 2.10343e-05, cumulative = 2.10343e-05
ExecutionTime = 6.30971 s  ClockTime = 14 s

volFieldValue volAvgFinTemperature write:
    volAverage() of T = 309.932

volFieldValue volAvgHeaterTemperature write:
    volAverage() of T = 322.857

surfaceFieldValue averageTempHeaterFinInterface write:
    areaAverage(heater_to_fins) of T = 310.267

Region: fluid Courant Number mean: 1330.56 max: 48331.7
Region: fins Diffusion Number mean: 126.447 max: 149517
Region: heater Diffusion Number mean: 72.17 max: 543.426
Time = 8s


Solving for solid region fins
GAMG:  Solving for e, Initial residual = 0.41555, Final residual = 0.0108457, No Iterations 1
Min/max T:309.825 312.817

Solving for solid region heater
GAMG:  Solving for e, Initial residual = 0.0708021, Final residual = 0.000216753, No Iterations 1
Min/max T:311.962 330.913

Solving for fluid region fluid
DILUPBiCGStab:  Solving for Ux, Initial residual = 0.00339068, Final residual = 0.00014765, No Iterations 1
DILUPBiCGStab:  Solving for Uy, Initial residual = 0.00768973, Final residual = 0.000285836, No Iterations 1
DILUPBiCGStab:  Solving for Uz, Initial residual = 0.0109376, Final residual = 0.000461985, No Iterations 1
DILUPBiCGStab:  Solving for h, Initial residual = 0.00846579, Final residual = 0.000688105, No Iterations 1
Min/max T:296.865 312.644
GAMG:  Solving for p_rgh, Initial residual = 0.0309442, Final residual = 0.00028521, No Iterations 4
GAMG:  Solving for p_rgh, Initial residual = 0.0162592, Final residual = 0.000137476, No Iterations 2
GAMG:  Solving for p_rgh, Initial residual = 0.00220523, Final residual = 2.125e-05, No Iterations 3
time step continuity errors : sum local = 0.000120364, global = -7.97492e-06, cumulative = -7.97492e-06
ExecutionTime = 6.468 s  ClockTime = 14 s

volFieldValue volAvgFinTemperature write:
    volAverage() of T = 312.056

volFieldValue volAvgHeaterTemperature write:
    volAverage() of T = 325.06

surfaceFieldValue averageTempHeaterFinInterface write:
    areaAverage(heater_to_fins) of T = 312.459

Region: fluid Courant Number mean: 1330.39 max: 48011.5
Region: fins Diffusion Number mean: 126.447 max: 149517
Region: heater Diffusion Number mean: 72.17 max: 543.426
Time = 9s


Solving for solid region fins
GAMG:  Solving for e, Initial residual = 0.395788, Final residual = 0.0105126, No Iterations 1
Min/max T:311.935 314.988

Solving for solid region heater
GAMG:  Solving for e, Initial residual = 0.0699883, Final residual = 0.000133324, No Iterations 1
Min/max T:314.133 333.102

Solving for fluid region fluid
DILUPBiCGStab:  Solving for Ux, Initial residual = 0.00282854, Final residual = 0.000121138, No Iterations 1
DILUPBiCGStab:  Solving for Uy, Initial residual = 0.00624391, Final residual = 0.000225528, No Iterations 1
DILUPBiCGStab:  Solving for Uz, Initial residual = 0.00858883, Final residual = 0.000357083, No Iterations 1
DILUPBiCGStab:  Solving for h, Initial residual = 0.00721628, Final residual = 0.000563853, No Iterations 1
Min/max T:296.86 314.811
GAMG:  Solving for p_rgh, Initial residual = 0.0239358, Final residual = 0.000131051, No Iterations 4
GAMG:  Solving for p_rgh, Initial residual = 0.00808166, Final residual = 7.08542e-05, No Iterations 2
GAMG:  Solving for p_rgh, Initial residual = 0.00112537, Final residual = 1.11685e-05, No Iterations 3
time step continuity errors : sum local = 6.24945e-05, global = 6.23358e-06, cumulative = 6.23358e-06
ExecutionTime = 6.63585 s  ClockTime = 14 s

volFieldValue volAvgFinTemperature write:
    volAverage() of T = 314.164

volFieldValue volAvgHeaterTemperature write:
    volAverage() of T = 327.243

surfaceFieldValue averageTempHeaterFinInterface write:
    areaAverage(heater_to_fins) of T = 314.637

Region: fluid Courant Number mean: 1330.23 max: 47633.5
Region: fins Diffusion Number mean: 126.447 max: 149517
Region: heater Diffusion Number mean: 72.17 max: 543.426
Time = 10s


Solving for solid region fins
GAMG:  Solving for e, Initial residual = 0.377129, Final residual = 0.0101373, No Iterations 1
Min/max T:314.018 317.143

Solving for solid region heater
GAMG:  Solving for e, Initial residual = 0.0692901, Final residual = 8.45907e-05, No Iterations 1
Min/max T:316.291 335.271

Solving for fluid region fluid
DILUPBiCGStab:  Solving for Ux, Initial residual = 0.00267334, Final residual = 0.000116747, No Iterations 1
DILUPBiCGStab:  Solving for Uy, Initial residual = 0.00568124, Final residual = 0.00021772, No Iterations 1
DILUPBiCGStab:  Solving for Uz, Initial residual = 0.00823949, Final residual = 0.000352207, No Iterations 1
DILUPBiCGStab:  Solving for h, Initial residual = 0.00631774, Final residual = 0.000478142, No Iterations 1
Min/max T:296.854 316.962
GAMG:  Solving for p_rgh, Initial residual = 0.0200746, Final residual = 0.000130048, No Iterations 3
GAMG:  Solving for p_rgh, Initial residual = 0.00401127, Final residual = 2.25785e-05, No Iterations 3
GAMG:  Solving for p_rgh, Initial residual = 0.000698655, Final residual = 4.38209e-06, No Iterations 3
time step continuity errors : sum local = 2.46832e-05, global = 4.81925e-06, cumulative = 4.81925e-06
ExecutionTime = 6.79306 s  ClockTime = 14 s

volFieldValue volAvgFinTemperature write:
    volAverage() of T = 316.258

volFieldValue volAvgHeaterTemperature write:
    volAverage() of T = 329.408

surfaceFieldValue averageTempHeaterFinInterface write:
    areaAverage(heater_to_fins) of T = 316.8

Region: fluid Courant Number mean: 1330.08 max: 47207.5
Region: fins Diffusion Number mean: 126.447 max: 149517
Region: heater Diffusion Number mean: 72.17 max: 543.426
Time = 11s


Solving for solid region fins
GAMG:  Solving for e, Initial residual = 0.359501, Final residual = 0.00974744, No Iterations 1
Min/max T:316.081 319.282

Solving for solid region heater
GAMG:  Solving for e, Initial residual = 0.068663, Final residual = 5.81274e-05, No Iterations 1
Min/max T:318.436 337.42

Solving for fluid region fluid
DILUPBiCGStab:  Solving for Ux, Initial residual = 0.00249047, Final residual = 0.000108865, No Iterations 1
DILUPBiCGStab:  Solving for Uy, Initial residual = 0.00507405, Final residual = 0.000198003, No Iterations 1
DILUPBiCGStab:  Solving for Uz, Initial residual = 0.00735309, Final residual = 0.000315732, No Iterations 1
DILUPBiCGStab:  Solving for h, Initial residual = 0.00565333, Final residual = 0.000417876, No Iterations 1
Min/max T:296.848 319.098
GAMG:  Solving for p_rgh, Initial residual = 0.0171988, Final residual = 7.27402e-05, No Iterations 3
GAMG:  Solving for p_rgh, Initial residual = 0.00294199, Final residual = 1.38679e-05, No Iterations 3
GAMG:  Solving for p_rgh, Initial residual = 0.000482424, Final residual = 3.17292e-06, No Iterations 3
time step continuity errors : sum local = 1.78556e-05, global = 4.61728e-06, cumulative = 4.61728e-06
ExecutionTime = 6.96757 s  ClockTime = 15 s

volFieldValue volAvgFinTemperature write:
    volAverage() of T = 318.336

volFieldValue volAvgHeaterTemperature write:
    volAverage() of T = 331.555

surfaceFieldValue averageTempHeaterFinInterface write:
    areaAverage(heater_to_fins) of T = 318.948

Region: fluid Courant Number mean: 1329.93 max: 46746.1
Region: fins Diffusion Number mean: 126.447 max: 149517
Region: heater Diffusion Number mean: 72.17 max: 543.426
Time = 12s


Solving for solid region fins
GAMG:  Solving for e, Initial residual = 0.343102, Final residual = 0.00935632, No Iterations 1
Min/max T:318.127 321.405

Solving for solid region heater
GAMG:  Solving for e, Initial residual = 0.0680824, Final residual = 4.36609e-05, No Iterations 1
Min/max T:320.566 339.553

Solving for fluid region fluid
DILUPBiCGStab:  Solving for Ux, Initial residual = 0.00237097, Final residual = 0.000103844, No Iterations 1
DILUPBiCGStab:  Solving for Uy, Initial residual = 0.00471449, Final residual = 0.000188484, No Iterations 1
DILUPBiCGStab:  Solving for Uz, Initial residual = 0.00694145, Final residual = 0.000300081, No Iterations 1
DILUPBiCGStab:  Solving for h, Initial residual = 0.00513575, Final residual = 0.00037106, No Iterations 1
Min/max T:296.842 321.217
GAMG:  Solving for p_rgh, Initial residual = 0.0155255, Final residual = 0.000145277, No Iterations 2
GAMG:  Solving for p_rgh, Initial residual = 0.0023781, Final residual = 1.56751e-05, No Iterations 3
GAMG:  Solving for p_rgh, Initial residual = 0.000449928, Final residual = 3.19995e-06, No Iterations 3
time step continuity errors : sum local = 1.80431e-05, global = 4.33078e-06, cumulative = 4.33078e-06
ExecutionTime = 7.17935 s  ClockTime = 15 s

volFieldValue volAvgFinTemperature write:
    volAverage() of T = 320.4

volFieldValue volAvgHeaterTemperature write:
    volAverage() of T = 333.686

surfaceFieldValue averageTempHeaterFinInterface write:
    areaAverage(heater_to_fins) of T = 321.082

Region: fluid Courant Number mean: 1329.78 max: 46262.9
Region: fins Diffusion Number mean: 126.447 max: 149517
Region: heater Diffusion Number mean: 72.17 max: 543.426
Time = 13s


Solving for solid region fins
GAMG:  Solving for e, Initial residual = 0.327761, Final residual = 0.00897257, No Iterations 1
Min/max T:320.158 323.513

Solving for solid region heater
GAMG:  Solving for e, Initial residual = 0.0675311, Final residual = 3.57363e-05, No Iterations 1
Min/max T:322.681 341.669

Solving for fluid region fluid
DILUPBiCGStab:  Solving for Ux, Initial residual = 0.00226301, Final residual = 9.90311e-05, No Iterations 1
DILUPBiCGStab:  Solving for Uy, Initial residual = 0.00438466, Final residual = 0.000177433, No Iterations 1
DILUPBiCGStab:  Solving for Uz, Initial residual = 0.00645816, Final residual = 0.000279393, No Iterations 1
DILUPBiCGStab:  Solving for h, Initial residual = 0.00472119, Final residual = 0.000332803, No Iterations 1
Min/max T:296.836 323.322
GAMG:  Solving for p_rgh, Initial residual = 0.0141291, Final residual = 0.000118117, No Iterations 2
GAMG:  Solving for p_rgh, Initial residual = 0.00215732, Final residual = 1.25483e-05, No Iterations 3
GAMG:  Solving for p_rgh, Initial residual = 0.000395087, Final residual = 2.56251e-06, No Iterations 3
time step continuity errors : sum local = 1.44686e-05, global = 4.4449e-06, cumulative = 4.4449e-06
ExecutionTime = 7.35799 s  ClockTime = 16 s

volFieldValue volAvgFinTemperature write:
    volAverage() of T = 322.448

volFieldValue volAvgHeaterTemperature write:
    volAverage() of T = 335.8

surfaceFieldValue averageTempHeaterFinInterface write:
    areaAverage(heater_to_fins) of T = 323.2

Region: fluid Courant Number mean: 1329.64 max: 45771.5
Region: fins Diffusion Number mean: 126.447 max: 149517
Region: heater Diffusion Number mean: 72.17 max: 543.426
Time = 14s


Solving for solid region fins
GAMG:  Solving for e, Initial residual = 0.313083, Final residual = 0.00858874, No Iterations 1
Min/max T:322.172 325.606

Solving for solid region heater
GAMG:  Solving for e, Initial residual = 0.067, Final residual = 3.10624e-05, No Iterations 1
Min/max T:324.783 343.769

Solving for fluid region fluid
DILUPBiCGStab:  Solving for Ux, Initial residual = 0.002172, Final residual = 9.48971e-05, No Iterations 1
DILUPBiCGStab:  Solving for Uy, Initial residual = 0.00413968, Final residual = 0.000168906, No Iterations 1
DILUPBiCGStab:  Solving for Uz, Initial residual = 0.00610022, Final residual = 0.000263593, No Iterations 1
DILUPBiCGStab:  Solving for h, Initial residual = 0.00437821, Final residual = 0.00030443, No Iterations 1
Min/max T:296.831 325.411
GAMG:  Solving for p_rgh, Initial residual = 0.0128287, Final residual = 0.000115664, No Iterations 2
GAMG:  Solving for p_rgh, Initial residual = 0.0019931, Final residual = 1.32395e-05, No Iterations 3
GAMG:  Solving for p_rgh, Initial residual = 0.000373768, Final residual = 2.67724e-06, No Iterations 3
time step continuity errors : sum local = 1.51407e-05, global = 3.81458e-06, cumulative = 3.81458e-06
ExecutionTime = 7.52631 s  ClockTime = 16 s

volFieldValue volAvgFinTemperature write:
    volAverage() of T = 324.483

volFieldValue volAvgHeaterTemperature write:
    volAverage() of T = 337.9

surfaceFieldValue averageTempHeaterFinInterface write:
    areaAverage(heater_to_fins) of T = 325.304

Region: fluid Courant Number mean: 1329.5 max: 45283.2
Region: fins Diffusion Number mean: 126.447 max: 149517
Region: heater Diffusion Number mean: 72.17 max: 543.426
Time = 15s


Solving for solid region fins
GAMG:  Solving for e, Initial residual = 0.299336, Final residual = 0.00822609, No Iterations 1
Min/max T:324.172 327.684

Solving for solid region heater
GAMG:  Solving for e, Initial residual = 0.0664822, Final residual = 2.85317e-05, No Iterations 1
Min/max T:326.87 345.854

Solving for fluid region fluid
DILUPBiCGStab:  Solving for Ux, Initial residual = 0.0020935, Final residual = 9.11963e-05, No Iterations 1
DILUPBiCGStab:  Solving for Uy, Initial residual = 0.00392575, Final residual = 0.000160964, No Iterations 1
DILUPBiCGStab:  Solving for Uz, Initial residual = 0.0057571, Final residual = 0.000248387, No Iterations 1
DILUPBiCGStab:  Solving for h, Initial residual = 0.00409358, Final residual = 0.000281775, No Iterations 1
Min/max T:296.825 327.486
GAMG:  Solving for p_rgh, Initial residual = 0.0119625, Final residual = 9.95233e-05, No Iterations 2
GAMG:  Solving for p_rgh, Initial residual = 0.0018314, Final residual = 1.14841e-05, No Iterations 3
GAMG:  Solving for p_rgh, Initial residual = 0.000336055, Final residual = 2.40853e-06, No Iterations 3
time step continuity errors : sum local = 1.36374e-05, global = 3.69572e-06, cumulative = 3.69572e-06
ExecutionTime = 7.6898 s  ClockTime = 16 s

volFieldValue volAvgFinTemperature write:
    volAverage() of T = 326.503

volFieldValue volAvgHeaterTemperature write:
    volAverage() of T = 339.985

surfaceFieldValue averageTempHeaterFinInterface write:
    areaAverage(heater_to_fins) of T = 327.392

Region: fluid Courant Number mean: 1329.36 max: 44808.4
Region: fins Diffusion Number mean: 126.447 max: 149517
Region: heater Diffusion Number mean: 72.17 max: 543.426
Time = 16s


Solving for solid region fins
GAMG:  Solving for e, Initial residual = 0.28654, Final residual = 0.00788671, No Iterations 1
Min/max T:326.156 329.747

Solving for solid region heater
GAMG:  Solving for e, Initial residual = 0.0659741, Final residual = 2.72681e-05, No Iterations 1
Min/max T:328.942 347.924

Solving for fluid region fluid
DILUPBiCGStab:  Solving for Ux, Initial residual = 0.00202179, Final residual = 8.77392e-05, No Iterations 1
DILUPBiCGStab:  Solving for Uy, Initial residual = 0.00373928, Final residual = 0.000153937, No Iterations 1
DILUPBiCGStab:  Solving for Uz, Initial residual = 0.00545882, Final residual = 0.000235262, No Iterations 1
DILUPBiCGStab:  Solving for h, Initial residual = 0.00385388, Final residual = 0.000261007, No Iterations 1
Min/max T:296.819 329.545
GAMG:  Solving for p_rgh, Initial residual = 0.01111, Final residual = 9.71164e-05, No Iterations 2
GAMG:  Solving for p_rgh, Initial residual = 0.00165931, Final residual = 1.0497e-05, No Iterations 3
GAMG:  Solving for p_rgh, Initial residual = 0.000306727, Final residual = 2.15371e-06, No Iterations 3
time step continuity errors : sum local = 1.22177e-05, global = 3.32701e-06, cumulative = 3.32701e-06
ExecutionTime = 7.86359 s  ClockTime = 16 s

volFieldValue volAvgFinTemperature write:
    volAverage() of T = 328.509

volFieldValue volAvgHeaterTemperature write:
    volAverage() of T = 342.054

surfaceFieldValue averageTempHeaterFinInterface write:
    areaAverage(heater_to_fins) of T = 329.467

Region: fluid Courant Number mean: 1329.23 max: 44355.1
Region: fins Diffusion Number mean: 126.447 max: 149517
Region: heater Diffusion Number mean: 72.17 max: 543.426
Time = 17s


Solving for solid region fins
GAMG:  Solving for e, Initial residual = 0.274592, Final residual = 0.00756754, No Iterations 1
Min/max T:328.126 331.796

Solving for solid region heater
GAMG:  Solving for e, Initial residual = 0.065474, Final residual = 2.66699e-05, No Iterations 1
Min/max T:331.001 349.98

Solving for fluid region fluid
DILUPBiCGStab:  Solving for Ux, Initial residual = 0.00195735, Final residual = 8.46643e-05, No Iterations 1
DILUPBiCGStab:  Solving for Uy, Initial residual = 0.00357752, Final residual = 0.000147466, No Iterations 1
DILUPBiCGStab:  Solving for Uz, Initial residual = 0.00519379, Final residual = 0.000223497, No Iterations 1
DILUPBiCGStab:  Solving for h, Initial residual = 0.00364394, Final residual = 0.000243769, No Iterations 1
Min/max T:296.813 331.59
GAMG:  Solving for p_rgh, Initial residual = 0.0102675, Final residual = 9.13262e-05, No Iterations 2
GAMG:  Solving for p_rgh, Initial residual = 0.00152481, Final residual = 9.87406e-06, No Iterations 3
GAMG:  Solving for p_rgh, Initial residual = 0.000284812, Final residual = 1.94468e-06, No Iterations 3
time step continuity errors : sum local = 1.10539e-05, global = 2.8553e-06, cumulative = 2.8553e-06
ExecutionTime = 8.01711 s  ClockTime = 17 s

volFieldValue volAvgFinTemperature write:
    volAverage() of T = 330.5

volFieldValue volAvgHeaterTemperature write:
    volAverage() of T = 344.11

surfaceFieldValue averageTempHeaterFinInterface write:
    areaAverage(heater_to_fins) of T = 331.527

Region: fluid Courant Number mean: 1329.09 max: 43929.7
Region: fins Diffusion Number mean: 126.447 max: 149517
Region: heater Diffusion Number mean: 72.17 max: 543.426
Time = 18s


Solving for solid region fins
GAMG:  Solving for e, Initial residual = 0.263435, Final residual = 0.00726613, No Iterations 1
Min/max T:330.081 333.83

Solving for solid region heater
GAMG:  Solving for e, Initial residual = 0.0649808, Final residual = 2.65256e-05, No Iterations 1
Min/max T:333.045 352.021

Solving for fluid region fluid
DILUPBiCGStab:  Solving for Ux, Initial residual = 0.0018995, Final residual = 8.19913e-05, No Iterations 1
DILUPBiCGStab:  Solving for Uy, Initial residual = 0.00343764, Final residual = 0.000141818, No Iterations 1
DILUPBiCGStab:  Solving for Uz, Initial residual = 0.00495768, Final residual = 0.00021295, No Iterations 1
DILUPBiCGStab:  Solving for h, Initial residual = 0.00345878, Final residual = 0.000228803, No Iterations 1
Min/max T:296.808 333.621
GAMG:  Solving for p_rgh, Initial residual = 0.00966168, Final residual = 9.25443e-05, No Iterations 2
GAMG:  Solving for p_rgh, Initial residual = 0.00144651, Final residual = 9.66707e-06, No Iterations 3
GAMG:  Solving for p_rgh, Initial residual = 0.000276069, Final residual = 1.87669e-06, No Iterations 3
time step continuity errors : sum local = 1.0689e-05, global = 2.62139e-06, cumulative = 2.62139e-06
ExecutionTime = 8.17788 s  ClockTime = 17 s

volFieldValue volAvgFinTemperature write:
    volAverage() of T = 332.478

volFieldValue volAvgHeaterTemperature write:
    volAverage() of T = 346.15

surfaceFieldValue averageTempHeaterFinInterface write:
    areaAverage(heater_to_fins) of T = 333.572

Region: fluid Courant Number mean: 1328.96 max: 43537
Region: fins Diffusion Number mean: 126.447 max: 149517
Region: heater Diffusion Number mean: 72.17 max: 543.426
Time = 19s


Solving for solid region fins
GAMG:  Solving for e, Initial residual = 0.253018, Final residual = 0.00698016, No Iterations 1
Min/max T:332.022 335.857

Solving for solid region heater
GAMG:  Solving for e, Initial residual = 0.0644934, Final residual = 2.65088e-05, No Iterations 1
Min/max T:335.075 354.047

Solving for fluid region fluid
DILUPBiCGStab:  Solving for Ux, Initial residual = 0.00184757, Final residual = 7.9579e-05, No Iterations 1
DILUPBiCGStab:  Solving for Uy, Initial residual = 0.00331113, Final residual = 0.000136739, No Iterations 1
DILUPBiCGStab:  Solving for Uz, Initial residual = 0.00474198, Final residual = 0.000203211, No Iterations 1
DILUPBiCGStab:  Solving for h, Initial residual = 0.00329288, Final residual = 0.000215104, No Iterations 1
Min/max T:296.802 335.64
GAMG:  Solving for p_rgh, Initial residual = 0.00919381, Final residual = 3.27324e-05, No Iterations 3
GAMG:  Solving for p_rgh, Initial residual = 0.00143481, Final residual = 1.34485e-05, No Iterations 2
GAMG:  Solving for p_rgh, Initial residual = 0.000205185, Final residual = 1.10776e-06, No Iterations 4
time step continuity errors : sum local = 6.32372e-06, global = 1.63458e-06, cumulative = 1.63458e-06
ExecutionTime = 8.33373 s  ClockTime = 17 s

volFieldValue volAvgFinTemperature write:
    volAverage() of T = 334.442

volFieldValue volAvgHeaterTemperature write:
    volAverage() of T = 348.177

surfaceFieldValue averageTempHeaterFinInterface write:
    areaAverage(heater_to_fins) of T = 335.603

Region: fluid Courant Number mean: 1328.83 max: 43180.1
Region: fins Diffusion Number mean: 126.447 max: 149517
Region: heater Diffusion Number mean: 72.17 max: 543.426
Time = 20s


Solving for solid region fins
GAMG:  Solving for e, Initial residual = 0.243301, Final residual = 0.00671021, No Iterations 1
Min/max T:333.948 337.87

Solving for solid region heater
GAMG:  Solving for e, Initial residual = 0.0640116, Final residual = 2.64263e-05, No Iterations 1
Min/max T:337.091 356.06

Solving for fluid region fluid
DILUPBiCGStab:  Solving for Ux, Initial residual = 0.00180064, Final residual = 7.7372e-05, No Iterations 1
DILUPBiCGStab:  Solving for Uy, Initial residual = 0.00319488, Final residual = 0.000132079, No Iterations 1
DILUPBiCGStab:  Solving for Uz, Initial residual = 0.00454696, Final residual = 0.000194145, No Iterations 1
DILUPBiCGStab:  Solving for h, Initial residual = 0.00314532, Final residual = 0.000202843, No Iterations 1
Min/max T:296.797 337.649
GAMG:  Solving for p_rgh, Initial residual = 0.00870681, Final residual = 3.10734e-05, No Iterations 3
GAMG:  Solving for p_rgh, Initial residual = 0.00135773, Final residual = 1.22538e-05, No Iterations 2
GAMG:  Solving for p_rgh, Initial residual = 0.000193198, Final residual = 9.97603e-07, No Iterations 4
time step continuity errors : sum local = 5.70749e-06, global = 1.41289e-06, cumulative = 1.41289e-06
ExecutionTime = 8.49751 s  ClockTime = 18 s

volFieldValue volAvgFinTemperature write:
    volAverage() of T = 336.393

volFieldValue volAvgHeaterTemperature write:
    volAverage() of T = 350.19

surfaceFieldValue averageTempHeaterFinInterface write:
    areaAverage(heater_to_fins) of T = 337.621

Region: fluid Courant Number mean: 1328.7 max: 42860.9
Region: fins Diffusion Number mean: 126.447 max: 149517
Region: heater Diffusion Number mean: 72.17 max: 543.426
Time = 21s


Solving for solid region fins
GAMG:  Solving for e, Initial residual = 0.234215, Final residual = 0.00645631, No Iterations 1
Min/max T:335.861 339.87

Solving for solid region heater
GAMG:  Solving for e, Initial residual = 0.0635347, Final residual = 2.62904e-05, No Iterations 1
Min/max T:339.094 358.059

Solving for fluid region fluid
DILUPBiCGStab:  Solving for Ux, Initial residual = 0.00175653, Final residual = 7.53222e-05, No Iterations 1
DILUPBiCGStab:  Solving for Uy, Initial residual = 0.00308835, Final residual = 0.00012777, No Iterations 1
DILUPBiCGStab:  Solving for Uz, Initial residual = 0.00436337, Final residual = 0.000185608, No Iterations 1
DILUPBiCGStab:  Solving for h, Initial residual = 0.00301438, Final residual = 0.000192584, No Iterations 1
Min/max T:296.785 339.644
GAMG:  Solving for p_rgh, Initial residual = 0.00830209, Final residual = 8.07162e-05, No Iterations 2
GAMG:  Solving for p_rgh, Initial residual = 0.00124491, Final residual = 8.27853e-06, No Iterations 3
GAMG:  Solving for p_rgh, Initial residual = 0.000238619, Final residual = 1.64183e-06, No Iterations 3
time step continuity errors : sum local = 9.41383e-06, global = 2.34475e-06, cumulative = 2.34475e-06
ExecutionTime = 8.66656 s  ClockTime = 18 s

volFieldValue volAvgFinTemperature write:
    volAverage() of T = 338.33

volFieldValue volAvgHeaterTemperature write:
    volAverage() of T = 352.188

surfaceFieldValue averageTempHeaterFinInterface write:
    areaAverage(heater_to_fins) of T = 339.624

Region: fluid Courant Number mean: 1328.58 max: 42580.1
Region: fins Diffusion Number mean: 126.447 max: 149517
Region: heater Diffusion Number mean: 72.17 max: 543.426
Time = 22s


Solving for solid region fins
GAMG:  Solving for e, Initial residual = 0.225728, Final residual = 0.00622111, No Iterations 1
Min/max T:337.76 341.856

Solving for solid region heater
GAMG:  Solving for e, Initial residual = 0.0630621, Final residual = 2.61335e-05, No Iterations 1
Min/max T:341.083 360.044

Solving for fluid region fluid
DILUPBiCGStab:  Solving for Ux, Initial residual = 0.00171625, Final residual = 7.34289e-05, No Iterations 1
DILUPBiCGStab:  Solving for Uy, Initial residual = 0.00298822, Final residual = 0.000123707, No Iterations 1
DILUPBiCGStab:  Solving for Uz, Initial residual = 0.00419041, Final residual = 0.000177548, No Iterations 1
DILUPBiCGStab:  Solving for h, Initial residual = 0.00289827, Final residual = 0.000183526, No Iterations 1
Min/max T:296.772 341.625
GAMG:  Solving for p_rgh, Initial residual = 0.00802272, Final residual = 2.90045e-05, No Iterations 3
GAMG:  Solving for p_rgh, Initial residual = 0.00126264, Final residual = 1.1359e-05, No Iterations 2
GAMG:  Solving for p_rgh, Initial residual = 0.000181063, Final residual = 9.61085e-07, No Iterations 4
time step continuity errors : sum local = 5.52373e-06, global = 1.41144e-06, cumulative = 1.41144e-06
ExecutionTime = 8.837 s  ClockTime = 18 s

volFieldValue volAvgFinTemperature write:
    volAverage() of T = 340.254

volFieldValue volAvgHeaterTemperature write:
    volAverage() of T = 354.173

surfaceFieldValue averageTempHeaterFinInterface write:
    areaAverage(heater_to_fins) of T = 341.613

Region: fluid Courant Number mean: 1328.45 max: 42337.6
Region: fins Diffusion Number mean: 126.447 max: 149517
Region: heater Diffusion Number mean: 72.17 max: 543.426
Time = 23s


Solving for solid region fins
GAMG:  Solving for e, Initial residual = 0.217775, Final residual = 0.00599783, No Iterations 1
Min/max T:339.646 343.828

Solving for solid region heater
GAMG:  Solving for e, Initial residual = 0.0625942, Final residual = 2.59447e-05, No Iterations 1
Min/max T:343.058 362.015

Solving for fluid region fluid
DILUPBiCGStab:  Solving for Ux, Initial residual = 0.00167907, Final residual = 7.16745e-05, No Iterations 1
DILUPBiCGStab:  Solving for Uy, Initial residual = 0.00289675, Final residual = 0.000119896, No Iterations 1
DILUPBiCGStab:  Solving for Uz, Initial residual = 0.00403273, Final residual = 0.000170047, No Iterations 1
DILUPBiCGStab:  Solving for h, Initial residual = 0.00279051, Final residual = 0.000175327, No Iterations 1
Min/max T:296.759 343.595
GAMG:  Solving for p_rgh, Initial residual = 0.00764697, Final residual = 2.83406e-05, No Iterations 3
GAMG:  Solving for p_rgh, Initial residual = 0.00121316, Final residual = 1.08952e-05, No Iterations 2
GAMG:  Solving for p_rgh, Initial residual = 0.000175219, Final residual = 9.18356e-07, No Iterations 4
time step continuity errors : sum local = 5.28855e-06, global = 1.32989e-06, cumulative = 1.32989e-06
ExecutionTime = 9.01073 s  ClockTime = 19 s

volFieldValue volAvgFinTemperature write:
    volAverage() of T = 342.164

volFieldValue volAvgHeaterTemperature write:
    volAverage() of T = 356.144

surfaceFieldValue averageTempHeaterFinInterface write:
    areaAverage(heater_to_fins) of T = 343.589

Region: fluid Courant Number mean: 1328.33 max: 42132.3
Region: fins Diffusion Number mean: 126.447 max: 149517
Region: heater Diffusion Number mean: 72.17 max: 543.426
Time = 24s


Solving for solid region fins
GAMG:  Solving for e, Initial residual = 0.210304, Final residual = 0.00579045, No Iterations 1
Min/max T:341.519 345.786

Solving for solid region heater
GAMG:  Solving for e, Initial residual = 0.0621303, Final residual = 2.57501e-05, No Iterations 1
Min/max T:345.019 363.972

Solving for fluid region fluid
DILUPBiCGStab:  Solving for Ux, Initial residual = 0.00164284, Final residual = 6.99941e-05, No Iterations 1
DILUPBiCGStab:  Solving for Uy, Initial residual = 0.00280813, Final residual = 0.000116214, No Iterations 1
DILUPBiCGStab:  Solving for Uz, Initial residual = 0.00388453, Final residual = 0.000163116, No Iterations 1
DILUPBiCGStab:  Solving for h, Initial residual = 0.00269299, Final residual = 0.000167608, No Iterations 1
Min/max T:296.748 345.559
GAMG:  Solving for p_rgh, Initial residual = 0.00732253, Final residual = 2.78163e-05, No Iterations 3
GAMG:  Solving for p_rgh, Initial residual = 0.00116512, Final residual = 1.05209e-05, No Iterations 2
GAMG:  Solving for p_rgh, Initial residual = 0.000169559, Final residual = 8.9356e-07, No Iterations 4
time step continuity errors : sum local = 5.15493e-06, global = 1.31591e-06, cumulative = 1.31591e-06
ExecutionTime = 9.16258 s  ClockTime = 19 s

volFieldValue volAvgFinTemperature write:
    volAverage() of T = 344.062

volFieldValue volAvgHeaterTemperature write:
    volAverage() of T = 358.101

surfaceFieldValue averageTempHeaterFinInterface write:
    areaAverage(heater_to_fins) of T = 345.551

Region: fluid Courant Number mean: 1328.21 max: 41962.6
Region: fins Diffusion Number mean: 126.447 max: 149517
Region: heater Diffusion Number mean: 72.17 max: 543.426
Time = 25s


Solving for solid region fins
GAMG:  Solving for e, Initial residual = 0.203289, Final residual = 0.00559654, No Iterations 1
Min/max T:343.378 347.731

Solving for solid region heater
GAMG:  Solving for e, Initial residual = 0.0616704, Final residual = 2.55519e-05, No Iterations 1
Min/max T:346.967 365.917

Solving for fluid region fluid
DILUPBiCGStab:  Solving for Ux, Initial residual = 0.00160796, Final residual = 6.83778e-05, No Iterations 1
DILUPBiCGStab:  Solving for Uy, Initial residual = 0.00272197, Final residual = 0.000112638, No Iterations 1
DILUPBiCGStab:  Solving for Uz, Initial residual = 0.00374589, Final residual = 0.000156711, No Iterations 1
DILUPBiCGStab:  Solving for h, Initial residual = 0.00260276, Final residual = 0.000160297, No Iterations 1
Min/max T:296.738 347.51
GAMG:  Solving for p_rgh, Initial residual = 0.0069586, Final residual = 2.53041e-05, No Iterations 3
GAMG:  Solving for p_rgh, Initial residual = 0.0011065, Final residual = 9.89011e-06, No Iterations 2
GAMG:  Solving for p_rgh, Initial residual = 0.000160543, Final residual = 8.69528e-07, No Iterations 4
time step continuity errors : sum local = 5.02523e-06, global = 1.2955e-06, cumulative = 1.2955e-06
ExecutionTime = 9.3245 s  ClockTime = 19 s

volFieldValue volAvgFinTemperature write:
    volAverage() of T = 345.946

volFieldValue volAvgHeaterTemperature write:
    volAverage() of T = 360.045

surfaceFieldValue averageTempHeaterFinInterface write:
    areaAverage(heater_to_fins) of T = 347.499

Region: fluid Courant Number mean: 1328.09 max: 41826.3
Region: fins Diffusion Number mean: 126.447 max: 149517
Region: heater Diffusion Number mean: 72.17 max: 543.426
Time = 26s


Solving for solid region fins
GAMG:  Solving for e, Initial residual = 0.196682, Final residual = 0.00541201, No Iterations 1
Min/max T:345.225 349.662

Solving for solid region heater
GAMG:  Solving for e, Initial residual = 0.061215, Final residual = 2.53414e-05, No Iterations 1
Min/max T:348.902 367.848

Solving for fluid region fluid
DILUPBiCGStab:  Solving for Ux, Initial residual = 0.00157391, Final residual = 6.6788e-05, No Iterations 1
DILUPBiCGStab:  Solving for Uy, Initial residual = 0.00263651, Final residual = 0.000109094, No Iterations 1
DILUPBiCGStab:  Solving for Uz, Initial residual = 0.00361218, Final residual = 0.000150653, No Iterations 1
DILUPBiCGStab:  Solving for h, Initial residual = 0.00251794, Final residual = 0.000153525, No Iterations 1
Min/max T:296.728 349.447
GAMG:  Solving for p_rgh, Initial residual = 0.00672344, Final residual = 2.42116e-05, No Iterations 3
GAMG:  Solving for p_rgh, Initial residual = 0.00105704, Final residual = 9.47121e-06, No Iterations 2
GAMG:  Solving for p_rgh, Initial residual = 0.00015302, Final residual = 8.19857e-07, No Iterations 4
time step continuity errors : sum local = 4.74623e-06, global = 1.21032e-06, cumulative = 1.21032e-06
ExecutionTime = 9.47511 s  ClockTime = 20 s

volFieldValue volAvgFinTemperature write:
    volAverage() of T = 347.817

volFieldValue volAvgHeaterTemperature write:
    volAverage() of T = 361.976

surfaceFieldValue averageTempHeaterFinInterface write:
    areaAverage(heater_to_fins) of T = 349.434

Region: fluid Courant Number mean: 1327.97 max: 41720.8
Region: fins Diffusion Number mean: 126.447 max: 149517
Region: heater Diffusion Number mean: 72.17 max: 543.426
Time = 27s


Solving for solid region fins
GAMG:  Solving for e, Initial residual = 0.190409, Final residual = 0.00523482, No Iterations 1
Min/max T:347.058 351.58

Solving for solid region heater
GAMG:  Solving for e, Initial residual = 0.0607641, Final residual = 2.512e-05, No Iterations 1
Min/max T:350.824 369.765

Solving for fluid region fluid
DILUPBiCGStab:  Solving for Ux, Initial residual = 0.00154146, Final residual = 6.52572e-05, No Iterations 1
DILUPBiCGStab:  Solving for Uy, Initial residual = 0.00255722, Final residual = 0.00010574, No Iterations 1
DILUPBiCGStab:  Solving for Uz, Initial residual = 0.00348517, Final residual = 0.000144904, No Iterations 1
DILUPBiCGStab:  Solving for h, Initial residual = 0.00243748, Final residual = 0.000147341, No Iterations 1
Min/max T:296.718 351.371
GAMG:  Solving for p_rgh, Initial residual = 0.00649316, Final residual = 2.34357e-05, No Iterations 3
GAMG:  Solving for p_rgh, Initial residual = 0.00101598, Final residual = 9.14502e-06, No Iterations 2
GAMG:  Solving for p_rgh, Initial residual = 0.000146543, Final residual = 7.82715e-07, No Iterations 4
time step continuity errors : sum local = 4.5381e-06, global = 1.15214e-06, cumulative = 1.15214e-06
ExecutionTime = 9.62683 s  ClockTime = 20 s

volFieldValue volAvgFinTemperature write:
    volAverage() of T = 349.676

volFieldValue volAvgHeaterTemperature write:
    volAverage() of T = 363.893

surfaceFieldValue averageTempHeaterFinInterface write:
    areaAverage(heater_to_fins) of T = 351.356

Region: fluid Courant Number mean: 1327.85 max: 41643.5
Region: fins Diffusion Number mean: 126.447 max: 149517
Region: heater Diffusion Number mean: 72.17 max: 543.426
Time = 28s


Solving for solid region fins
GAMG:  Solving for e, Initial residual = 0.184479, Final residual = 0.00506589, No Iterations 1
Min/max T:348.879 353.485

Solving for solid region heater
GAMG:  Solving for e, Initial residual = 0.0603177, Final residual = 2.48918e-05, No Iterations 1
Min/max T:352.732 371.67

Solving for fluid region fluid
DILUPBiCGStab:  Solving for Ux, Initial residual = 0.00151025, Final residual = 6.37765e-05, No Iterations 1
DILUPBiCGStab:  Solving for Uy, Initial residual = 0.00248247, Final residual = 0.000102595, No Iterations 1
DILUPBiCGStab:  Solving for Uz, Initial residual = 0.00336407, Final residual = 0.000139485, No Iterations 1
DILUPBiCGStab:  Solving for h, Initial residual = 0.00236008, Final residual = 0.000141551, No Iterations 1
Min/max T:296.709 353.281
GAMG:  Solving for p_rgh, Initial residual = 0.0061902, Final residual = 2.26809e-05, No Iterations 3
GAMG:  Solving for p_rgh, Initial residual = 0.000969416, Final residual = 8.75565e-06, No Iterations 2
GAMG:  Solving for p_rgh, Initial residual = 0.000139362, Final residual = 7.29516e-07, No Iterations 4
time step continuity errors : sum local = 4.23512e-06, global = 1.05385e-06, cumulative = 1.05385e-06
ExecutionTime = 9.78713 s  ClockTime = 20 s

volFieldValue volAvgFinTemperature write:
    volAverage() of T = 351.522

volFieldValue volAvgHeaterTemperature write:
    volAverage() of T = 365.797

surfaceFieldValue averageTempHeaterFinInterface write:
    areaAverage(heater_to_fins) of T = 353.265

Region: fluid Courant Number mean: 1327.74 max: 41591.2
Region: fins Diffusion Number mean: 126.447 max: 149517
Region: heater Diffusion Number mean: 72.17 max: 543.426
Time = 29s


Solving for solid region fins
GAMG:  Solving for e, Initial residual = 0.178874, Final residual = 0.00490667, No Iterations 1
Min/max T:350.687 355.377

Solving for solid region heater
GAMG:  Solving for e, Initial residual = 0.0598754, Final residual = 2.4667e-05, No Iterations 1
Min/max T:354.627 373.561

Solving for fluid region fluid
DILUPBiCGStab:  Solving for Ux, Initial residual = 0.00147987, Final residual = 6.23476e-05, No Iterations 1
DILUPBiCGStab:  Solving for Uy, Initial residual = 0.00241099, Final residual = 9.95725e-05, No Iterations 1
DILUPBiCGStab:  Solving for Uz, Initial residual = 0.00325032, Final residual = 0.00013442, No Iterations 1
DILUPBiCGStab:  Solving for h, Initial residual = 0.00228531, Final residual = 0.000136115, No Iterations 1
Min/max T:296.701 355.178
GAMG:  Solving for p_rgh, Initial residual = 0.00603349, Final residual = 2.22236e-05, No Iterations 3
GAMG:  Solving for p_rgh, Initial residual = 0.000952296, Final residual = 8.63651e-06, No Iterations 2
GAMG:  Solving for p_rgh, Initial residual = 0.00013721, Final residual = 7.16699e-07, No Iterations 4
time step continuity errors : sum local = 4.16553e-06, global = 1.03061e-06, cumulative = 1.03061e-06
ExecutionTime = 9.96196 s  ClockTime = 20 s

volFieldValue volAvgFinTemperature write:
    volAverage() of T = 353.355

volFieldValue volAvgHeaterTemperature write:
    volAverage() of T = 367.689

surfaceFieldValue averageTempHeaterFinInterface write:
    areaAverage(heater_to_fins) of T = 355.16

Region: fluid Courant Number mean: 1327.63 max: 41561
Region: fins Diffusion Number mean: 126.447 max: 149517
Region: heater Diffusion Number mean: 72.17 max: 543.426
Time = 30s


Solving for solid region fins
GAMG:  Solving for e, Initial residual = 0.173568, Final residual = 0.00475755, No Iterations 1
Min/max T:352.483 357.256

Solving for solid region heater
GAMG:  Solving for e, Initial residual = 0.0594368, Final residual = 2.4452e-05, No Iterations 1
Min/max T:356.51 375.439

Solving for fluid region fluid
DILUPBiCGStab:  Solving for Ux, Initial residual = 0.00145059, Final residual = 6.09654e-05, No Iterations 1
DILUPBiCGStab:  Solving for Uy, Initial residual = 0.00234327, Final residual = 9.66594e-05, No Iterations 1
DILUPBiCGStab:  Solving for Uz, Initial residual = 0.0031405, Final residual = 0.000129578, No Iterations 1
DILUPBiCGStab:  Solving for h, Initial residual = 0.00221423, Final residual = 0.00013111, No Iterations 1
Min/max T:296.692 357.063
GAMG:  Solving for p_rgh, Initial residual = 0.00596346, Final residual = 2.16545e-05, No Iterations 3
GAMG:  Solving for p_rgh, Initial residual = 0.000931907, Final residual = 8.31935e-06, No Iterations 2
GAMG:  Solving for p_rgh, Initial residual = 0.000133592, Final residual = 6.88029e-07, No Iterations 4
time step continuity errors : sum local = 4.00328e-06, global = 9.99468e-07, cumulative = 9.99468e-07
ExecutionTime = 10.1333 s  ClockTime = 21 s

volFieldValue volAvgFinTemperature write:
    volAverage() of T = 355.176

volFieldValue volAvgHeaterTemperature write:
    volAverage() of T = 369.567

surfaceFieldValue averageTempHeaterFinInterface write:
    areaAverage(heater_to_fins) of T = 357.043

Region: fluid Courant Number mean: 1327.51 max: 41549.8
Region: fins Diffusion Number mean: 126.447 max: 149517
Region: heater Diffusion Number mean: 72.17 max: 543.426
Time = 31s


Solving for solid region fins
GAMG:  Solving for e, Initial residual = 0.168521, Final residual = 0.00463407, No Iterations 1
Min/max T:354.266 359.127

Solving for solid region heater
GAMG:  Solving for e, Initial residual = 0.0589983, Final residual = 2.43296e-05, No Iterations 1
Min/max T:358.379 377.305

Solving for fluid region fluid
DILUPBiCGStab:  Solving for Ux, Initial residual = 0.00142246, Final residual = 5.9628e-05, No Iterations 1
DILUPBiCGStab:  Solving for Uy, Initial residual = 0.00227988, Final residual = 9.39631e-05, No Iterations 1
DILUPBiCGStab:  Solving for Uz, Initial residual = 0.00303642, Final residual = 0.000124961, No Iterations 1
DILUPBiCGStab:  Solving for h, Initial residual = 0.00214694, Final residual = 0.000126375, No Iterations 1
Min/max T:296.684 358.934
GAMG:  Solving for p_rgh, Initial residual = 0.00584137, Final residual = 2.11403e-05, No Iterations 3
GAMG:  Solving for p_rgh, Initial residual = 0.000910185, Final residual = 8.04807e-06, No Iterations 2
GAMG:  Solving for p_rgh, Initial residual = 0.000130143, Final residual = 6.57281e-07, No Iterations 4
time step continuity errors : sum local = 3.82848e-06, global = 9.41759e-07, cumulative = 9.41759e-07
ExecutionTime = 10.2874 s  ClockTime = 21 s

volFieldValue volAvgFinTemperature write:
    volAverage() of T = 356.984

volFieldValue volAvgHeaterTemperature write:
    volAverage() of T = 371.432

surfaceFieldValue averageTempHeaterFinInterface write:
    areaAverage(heater_to_fins) of T = 358.913

Region: fluid Courant Number mean: 1327.4 max: 41554.7
Region: fins Diffusion Number mean: 126.447 max: 149517
Region: heater Diffusion Number mean: 72.17 max: 543.426
Time = 32s


Solving for solid region fins
GAMG:  Solving for e, Initial residual = 0.163745, Final residual = 0.00452908, No Iterations 1
Min/max T:356.037 360.988

Solving for solid region heater
GAMG:  Solving for e, Initial residual = 0.0585594, Final residual = 2.42697e-05, No Iterations 1
Min/max T:360.236 379.157

Solving for fluid region fluid
DILUPBiCGStab:  Solving for Ux, Initial residual = 0.00139533, Final residual = 5.83447e-05, No Iterations 1
DILUPBiCGStab:  Solving for Uy, Initial residual = 0.00221858, Final residual = 9.14181e-05, No Iterations 1
DILUPBiCGStab:  Solving for Uz, Initial residual = 0.00293756, Final residual = 0.000120567, No Iterations 1
DILUPBiCGStab:  Solving for h, Initial residual = 0.00208326, Final residual = 0.000121785, No Iterations 1
Min/max T:296.677 360.792
GAMG:  Solving for p_rgh, Initial residual = 0.00574327, Final residual = 2.08295e-05, No Iterations 3
GAMG:  Solving for p_rgh, Initial residual = 0.000897595, Final residual = 7.95767e-06, No Iterations 2
GAMG:  Solving for p_rgh, Initial residual = 0.000128871, Final residual = 6.4517e-07, No Iterations 4
time step continuity errors : sum local = 3.76224e-06, global = 9.00457e-07, cumulative = 9.00457e-07
ExecutionTime = 10.4386 s  ClockTime = 21 s

volFieldValue volAvgFinTemperature write:
    volAverage() of T = 358.779

volFieldValue volAvgHeaterTemperature write:
    volAverage() of T = 373.284

surfaceFieldValue averageTempHeaterFinInterface write:
    areaAverage(heater_to_fins) of T = 360.769

Region: fluid Courant Number mean: 1327.29 max: 41573
Region: fins Diffusion Number mean: 126.447 max: 149517
Region: heater Diffusion Number mean: 72.17 max: 543.426
Time = 33s


Solving for solid region fins
GAMG:  Solving for e, Initial residual = 0.159174, Final residual = 0.00445525, No Iterations 1
Min/max T:357.795 362.836

Solving for solid region heater
GAMG:  Solving for e, Initial residual = 0.0581164, Final residual = 2.4334e-05, No Iterations 1
Min/max T:362.079 380.997

Solving for fluid region fluid
DILUPBiCGStab:  Solving for Ux, Initial residual = 0.00136888, Final residual = 5.70954e-05, No Iterations 1
DILUPBiCGStab:  Solving for Uy, Initial residual = 0.00216074, Final residual = 8.89995e-05, No Iterations 1
DILUPBiCGStab:  Solving for Uz, Initial residual = 0.00284294, Final residual = 0.000116376, No Iterations 1
DILUPBiCGStab:  Solving for h, Initial residual = 0.00202418, Final residual = 0.000117295, No Iterations 1
Min/max T:296.669 362.638
GAMG:  Solving for p_rgh, Initial residual = 0.00571012, Final residual = 2.08742e-05, No Iterations 3
GAMG:  Solving for p_rgh, Initial residual = 0.000903302, Final residual = 8.1078e-06, No Iterations 2
GAMG:  Solving for p_rgh, Initial residual = 0.000129263, Final residual = 6.62674e-07, No Iterations 4
time step continuity errors : sum local = 3.86888e-06, global = 8.95246e-07, cumulative = 8.95246e-07
ExecutionTime = 10.5835 s  ClockTime = 22 s

volFieldValue volAvgFinTemperature write:
    volAverage() of T = 360.561

volFieldValue volAvgHeaterTemperature write:
    volAverage() of T = 375.124

surfaceFieldValue averageTempHeaterFinInterface write:
    areaAverage(heater_to_fins) of T = 362.613

Region: fluid Courant Number mean: 1327.19 max: 41601.8
Region: fins Diffusion Number mean: 126.447 max: 149517
Region: heater Diffusion Number mean: 72.17 max: 543.426
Time = 34s


Solving for solid region fins
GAMG:  Solving for e, Initial residual = 0.154832, Final residual = 0.00438757, No Iterations 1
Min/max T:359.54 364.672

Solving for solid region heater
GAMG:  Solving for e, Initial residual = 0.0576724, Final residual = 2.44053e-05, No Iterations 1
Min/max T:363.91 382.823

Solving for fluid region fluid
DILUPBiCGStab:  Solving for Ux, Initial residual = 0.00134332, Final residual = 5.58928e-05, No Iterations 1
DILUPBiCGStab:  Solving for Uy, Initial residual = 0.00210627, Final residual = 8.66959e-05, No Iterations 1
DILUPBiCGStab:  Solving for Uz, Initial residual = 0.00275293, Final residual = 0.000112357, No Iterations 1
DILUPBiCGStab:  Solving for h, Initial residual = 0.00196788, Final residual = 0.000112989, No Iterations 1
Min/max T:296.662 364.47
GAMG:  Solving for p_rgh, Initial residual = 0.00587501, Final residual = 2.25232e-05, No Iterations 3
GAMG:  Solving for p_rgh, Initial residual = 0.000985222, Final residual = 9.51163e-06, No Iterations 2
GAMG:  Solving for p_rgh, Initial residual = 0.0001356, Final residual = 8.04528e-07, No Iterations 4
time step continuity errors : sum local = 4.70359e-06, global = 9.48712e-07, cumulative = 9.48712e-07
ExecutionTime = 10.7492 s  ClockTime = 22 s

volFieldValue volAvgFinTemperature write:
    volAverage() of T = 362.33

volFieldValue volAvgHeaterTemperature write:
    volAverage() of T = 376.95

surfaceFieldValue averageTempHeaterFinInterface write:
    areaAverage(heater_to_fins) of T = 364.443

Region: fluid Courant Number mean: 1327.08 max: 41638.9
Region: fins Diffusion Number mean: 126.447 max: 149517
Region: heater Diffusion Number mean: 72.17 max: 543.426
Time = 35s


Solving for solid region fins
GAMG:  Solving for e, Initial residual = 0.150647, Final residual = 0.00432815, No Iterations 1
Min/max T:361.271 366.494

Solving for solid region heater
GAMG:  Solving for e, Initial residual = 0.0572267, Final residual = 2.44993e-05, No Iterations 1
Min/max T:365.727 384.636

Solving for fluid region fluid
DILUPBiCGStab:  Solving for Ux, Initial residual = 0.00131854, Final residual = 5.47435e-05, No Iterations 1
DILUPBiCGStab:  Solving for Uy, Initial residual = 0.00205517, Final residual = 8.4511e-05, No Iterations 1
DILUPBiCGStab:  Solving for Uz, Initial residual = 0.00266665, Final residual = 0.000108528, No Iterations 1
DILUPBiCGStab:  Solving for h, Initial residual = 0.00191519, Final residual = 0.00010865, No Iterations 1
Min/max T:296.655 366.289
GAMG:  Solving for p_rgh, Initial residual = 0.0062783, Final residual = 2.43436e-05, No Iterations 3
GAMG:  Solving for p_rgh, Initial residual = 0.000997725, Final residual = 4.9842e-06, No Iterations 3
GAMG:  Solving for p_rgh, Initial residual = 0.00015587, Final residual = 1.1957e-06, No Iterations 3
time step continuity errors : sum local = 7.00019e-06, global = 9.55755e-07, cumulative = 9.55755e-07
ExecutionTime = 10.9162 s  ClockTime = 22 s

volFieldValue volAvgFinTemperature write:
    volAverage() of T = 364.084

volFieldValue volAvgHeaterTemperature write:
    volAverage() of T = 378.762

surfaceFieldValue averageTempHeaterFinInterface write:
    areaAverage(heater_to_fins) of T = 366.261

Region: fluid Courant Number mean: 1326.98 max: 41682
Region: fins Diffusion Number mean: 126.447 max: 149517
Region: heater Diffusion Number mean: 72.17 max: 543.426
Time = 36s


Solving for solid region fins
GAMG:  Solving for e, Initial residual = 0.146615, Final residual = 0.00425579, No Iterations 1
Min/max T:362.988 368.303

Solving for solid region heater
GAMG:  Solving for e, Initial residual = 0.0567838, Final residual = 2.45134e-05, No Iterations 1
Min/max T:367.531 386.436

Solving for fluid region fluid
DILUPBiCGStab:  Solving for Ux, Initial residual = 0.00129299, Final residual = 5.35264e-05, No Iterations 1
DILUPBiCGStab:  Solving for Uy, Initial residual = 0.00200786, Final residual = 8.23478e-05, No Iterations 1
DILUPBiCGStab:  Solving for Uz, Initial residual = 0.0025847, Final residual = 0.000104867, No Iterations 1
DILUPBiCGStab:  Solving for h, Initial residual = 0.00186431, Final residual = 0.000104489, No Iterations 1
Min/max T:296.649 368.094
GAMG:  Solving for p_rgh, Initial residual = 0.00579947, Final residual = 5.69392e-05, No Iterations 2
GAMG:  Solving for p_rgh, Initial residual = 0.00082318, Final residual = 5.89532e-06, No Iterations 3
GAMG:  Solving for p_rgh, Initial residual = 0.000161903, Final residual = 1.12086e-06, No Iterations 3
time step continuity errors : sum local = 6.56715e-06, global = 1.60611e-06, cumulative = 1.60611e-06
ExecutionTime = 11.0779 s  ClockTime = 23 s

volFieldValue volAvgFinTemperature write:
    volAverage() of T = 365.826

volFieldValue volAvgHeaterTemperature write:
    volAverage() of T = 380.562

surfaceFieldValue averageTempHeaterFinInterface write:
    areaAverage(heater_to_fins) of T = 368.065

Region: fluid Courant Number mean: 1326.88 max: 41729.2
Region: fins Diffusion Number mean: 126.447 max: 149517
Region: heater Diffusion Number mean: 72.17 max: 543.426
Time = 37s


Solving for solid region fins
GAMG:  Solving for e, Initial residual = 0.142705, Final residual = 0.00417762, No Iterations 1
Min/max T:364.691 370.098

Solving for solid region heater
GAMG:  Solving for e, Initial residual = 0.0563433, Final residual = 2.4487e-05, No Iterations 1
Min/max T:369.322 388.223

Solving for fluid region fluid
DILUPBiCGStab:  Solving for Ux, Initial residual = 0.00126869, Final residual = 5.23739e-05, No Iterations 1
DILUPBiCGStab:  Solving for Uy, Initial residual = 0.0019557, Final residual = 8.00199e-05, No Iterations 1
DILUPBiCGStab:  Solving for Uz, Initial residual = 0.00250612, Final residual = 0.000101353, No Iterations 1
DILUPBiCGStab:  Solving for h, Initial residual = 0.00181526, Final residual = 0.000100357, No Iterations 1
Min/max T:296.642 369.887
GAMG:  Solving for p_rgh, Initial residual = 0.00545983, Final residual = 5.13837e-05, No Iterations 2
GAMG:  Solving for p_rgh, Initial residual = 0.000772259, Final residual = 5.28543e-06, No Iterations 3
GAMG:  Solving for p_rgh, Initial residual = 0.000150662, Final residual = 1.02214e-06, No Iterations 3
time step continuity errors : sum local = 5.99542e-06, global = 1.5032e-06, cumulative = 1.5032e-06
ExecutionTime = 11.2448 s  ClockTime = 23 s

volFieldValue volAvgFinTemperature write:
    volAverage() of T = 367.554

volFieldValue volAvgHeaterTemperature write:
    volAverage() of T = 382.349

surfaceFieldValue averageTempHeaterFinInterface write:
    areaAverage(heater_to_fins) of T = 369.856

Region: fluid Courant Number mean: 1326.78 max: 41778.9
Region: fins Diffusion Number mean: 126.447 max: 149517
Region: heater Diffusion Number mean: 72.17 max: 543.426
Time = 38s


Solving for solid region fins
GAMG:  Solving for e, Initial residual = 0.138937, Final residual = 0.00409632, No Iterations 1
Min/max T:366.381 371.881

Solving for solid region heater
GAMG:  Solving for e, Initial residual = 0.0559055, Final residual = 2.4431e-05, No Iterations 1
Min/max T:371.1 389.997

Solving for fluid region fluid
DILUPBiCGStab:  Solving for Ux, Initial residual = 0.00124466, Final residual = 5.12543e-05, No Iterations 1
DILUPBiCGStab:  Solving for Uy, Initial residual = 0.00190532, Final residual = 7.77788e-05, No Iterations 1
DILUPBiCGStab:  Solving for Uz, Initial residual = 0.0024293, Final residual = 9.79053e-05, No Iterations 1
DILUPBiCGStab:  Solving for h, Initial residual = 0.00176824, Final residual = 9.63119e-05, No Iterations 1
Min/max T:296.635 371.667
GAMG:  Solving for p_rgh, Initial residual = 0.00522132, Final residual = 4.9972e-05, No Iterations 2
GAMG:  Solving for p_rgh, Initial residual = 0.000752466, Final residual = 5.02869e-06, No Iterations 3
GAMG:  Solving for p_rgh, Initial residual = 0.00014551, Final residual = 9.44146e-07, No Iterations 3
time step continuity errors : sum local = 5.5427e-06, global = 9.02274e-07, cumulative = 9.02274e-07
ExecutionTime = 11.3932 s  ClockTime = 23 s

volFieldValue volAvgFinTemperature write:
    volAverage() of T = 369.27

volFieldValue volAvgHeaterTemperature write:
    volAverage() of T = 384.122

surfaceFieldValue averageTempHeaterFinInterface write:
    areaAverage(heater_to_fins) of T = 371.633

Region: fluid Courant Number mean: 1326.68 max: 41829.5
Region: fins Diffusion Number mean: 126.447 max: 149517
Region: heater Diffusion Number mean: 72.17 max: 543.426
Time = 39s


Solving for solid region fins
GAMG:  Solving for e, Initial residual = 0.135321, Final residual = 0.00401434, No Iterations 1
Min/max T:368.058 373.651

Solving for solid region heater
GAMG:  Solving for e, Initial residual = 0.0554703, Final residual = 2.43555e-05, No Iterations 1
Min/max T:372.865 391.757

Solving for fluid region fluid
DILUPBiCGStab:  Solving for Ux, Initial residual = 0.00122101, Final residual = 5.01602e-05, No Iterations 1
DILUPBiCGStab:  Solving for Uy, Initial residual = 0.00185693, Final residual = 7.57391e-05, No Iterations 1
DILUPBiCGStab:  Solving for Uz, Initial residual = 0.00235609, Final residual = 9.4663e-05, No Iterations 1
DILUPBiCGStab:  Solving for h, Initial residual = 0.00172241, Final residual = 9.23953e-05, No Iterations 1
Min/max T:296.629 373.433
GAMG:  Solving for p_rgh, Initial residual = 0.0050761, Final residual = 4.86423e-05, No Iterations 2
GAMG:  Solving for p_rgh, Initial residual = 0.000728828, Final residual = 4.83332e-06, No Iterations 3
GAMG:  Solving for p_rgh, Initial residual = 0.000140089, Final residual = 8.99855e-07, No Iterations 3
time step continuity errors : sum local = 5.28624e-06, global = 6.23868e-07, cumulative = 6.23868e-07
ExecutionTime = 11.5479 s  ClockTime = 24 s

volFieldValue volAvgFinTemperature write:
    volAverage() of T = 370.972

volFieldValue volAvgHeaterTemperature write:
    volAverage() of T = 385.883

surfaceFieldValue averageTempHeaterFinInterface write:
    areaAverage(heater_to_fins) of T = 373.398

Region: fluid Courant Number mean: 1326.59 max: 41880
Region: fins Diffusion Number mean: 126.447 max: 149517
Region: heater Diffusion Number mean: 72.17 max: 543.426
Time = 40s


Solving for solid region fins
GAMG:  Solving for e, Initial residual = 0.131839, Final residual = 0.00392797, No Iterations 1
Min/max T:369.721 375.408

Solving for solid region heater
GAMG:  Solving for e, Initial residual = 0.0550389, Final residual = 2.42384e-05, No Iterations 1
Min/max T:374.617 393.505

Solving for fluid region fluid
DILUPBiCGStab:  Solving for Ux, Initial residual = 0.00119802, Final residual = 4.90895e-05, No Iterations 1
DILUPBiCGStab:  Solving for Uy, Initial residual = 0.00181054, Final residual = 7.37821e-05, No Iterations 1
DILUPBiCGStab:  Solving for Uz, Initial residual = 0.00228416, Final residual = 9.15393e-05, No Iterations 1
DILUPBiCGStab:  Solving for h, Initial residual = 0.00167802, Final residual = 8.85894e-05, No Iterations 1
Min/max T:296.623 375.187
GAMG:  Solving for p_rgh, Initial residual = 0.00486444, Final residual = 4.66405e-05, No Iterations 2
GAMG:  Solving for p_rgh, Initial residual = 0.000703959, Final residual = 4.65622e-06, No Iterations 3
GAMG:  Solving for p_rgh, Initial residual = 0.000134429, Final residual = 8.60189e-07, No Iterations 3
time step continuity errors : sum local = 5.05596e-06, global = 5.71601e-07, cumulative = 5.71601e-07
ExecutionTime = 11.7149 s  ClockTime = 24 s

volFieldValue volAvgFinTemperature write:
    volAverage() of T = 372.662

volFieldValue volAvgHeaterTemperature write:
    volAverage() of T = 387.63

surfaceFieldValue averageTempHeaterFinInterface write:
    areaAverage(heater_to_fins) of T = 375.15

Region: fluid Courant Number mean: 1326.49 max: 41929.3
Region: fins Diffusion Number mean: 126.447 max: 149517
Region: heater Diffusion Number mean: 72.17 max: 543.426
Time = 41s


Solving for solid region fins
GAMG:  Solving for e, Initial residual = 0.128485, Final residual = 0.00384176, No Iterations 1
Min/max T:371.372 377.152

Solving for solid region heater
GAMG:  Solving for e, Initial residual = 0.054611, Final residual = 2.41057e-05, No Iterations 1
Min/max T:376.357 395.24

Solving for fluid region fluid
DILUPBiCGStab:  Solving for Ux, Initial residual = 0.00117557, Final residual = 4.80532e-05, No Iterations 1
DILUPBiCGStab:  Solving for Uy, Initial residual = 0.00176513, Final residual = 7.18045e-05, No Iterations 1
DILUPBiCGStab:  Solving for Uz, Initial residual = 0.00221399, Final residual = 8.85602e-05, No Iterations 1
DILUPBiCGStab:  Solving for h, Initial residual = 0.00163564, Final residual = 8.49068e-05, No Iterations 1
Min/max T:296.617 376.928
GAMG:  Solving for p_rgh, Initial residual = 0.00476525, Final residual = 4.62344e-05, No Iterations 2
GAMG:  Solving for p_rgh, Initial residual = 0.000698644, Final residual = 4.53207e-06, No Iterations 3
GAMG:  Solving for p_rgh, Initial residual = 0.000132617, Final residual = 8.34767e-07, No Iterations 3
time step continuity errors : sum local = 4.90921e-06, global = 4.20638e-07, cumulative = 4.20638e-07
ExecutionTime = 11.9026 s  ClockTime = 24 s

volFieldValue volAvgFinTemperature write:
    volAverage() of T = 374.34

volFieldValue volAvgHeaterTemperature write:
    volAverage() of T = 389.365

surfaceFieldValue averageTempHeaterFinInterface write:
    areaAverage(heater_to_fins) of T = 376.89

Region: fluid Courant Number mean: 1326.4 max: 41976.7
Region: fins Diffusion Number mean: 126.447 max: 149517
Region: heater Diffusion Number mean: 72.17 max: 543.426
Time = 42s


Solving for solid region fins
GAMG:  Solving for e, Initial residual = 0.125263, Final residual = 0.00375448, No Iterations 1
Min/max T:373.01 378.883

Solving for solid region heater
GAMG:  Solving for e, Initial residual = 0.054187, Final residual = 2.39492e-05, No Iterations 1
Min/max T:378.084 396.963

Solving for fluid region fluid
DILUPBiCGStab:  Solving for Ux, Initial residual = 0.0011535, Final residual = 4.7051e-05, No Iterations 1
DILUPBiCGStab:  Solving for Uy, Initial residual = 0.00172089, Final residual = 6.98636e-05, No Iterations 1
DILUPBiCGStab:  Solving for Uz, Initial residual = 0.00214592, Final residual = 8.57299e-05, No Iterations 1
DILUPBiCGStab:  Solving for h, Initial residual = 0.00159538, Final residual = 8.13949e-05, No Iterations 1
Min/max T:296.611 378.656
GAMG:  Solving for p_rgh, Initial residual = 0.00471589, Final residual = 4.57552e-05, No Iterations 2
GAMG:  Solving for p_rgh, Initial residual = 0.000689153, Final residual = 4.5306e-06, No Iterations 3
GAMG:  Solving for p_rgh, Initial residual = 0.000133407, Final residual = 8.24048e-07, No Iterations 3
time step continuity errors : sum local = 4.84926e-06, global = 3.64472e-07, cumulative = 3.64472e-07
ExecutionTime = 12.0684 s  ClockTime = 25 s

volFieldValue volAvgFinTemperature write:
    volAverage() of T = 376.005

volFieldValue volAvgHeaterTemperature write:
    volAverage() of T = 391.088

surfaceFieldValue averageTempHeaterFinInterface write:
    areaAverage(heater_to_fins) of T = 378.616

Region: fluid Courant Number mean: 1326.3 max: 42021.5
Region: fins Diffusion Number mean: 126.447 max: 149517
Region: heater Diffusion Number mean: 72.17 max: 543.426
Time = 43s


Solving for solid region fins
GAMG:  Solving for e, Initial residual = 0.122168, Final residual = 0.00366363, No Iterations 1
Min/max T:374.635 380.602

Solving for solid region heater
GAMG:  Solving for e, Initial residual = 0.0537679, Final residual = 2.37553e-05, No Iterations 1
Min/max T:379.798 398.673

Solving for fluid region fluid
DILUPBiCGStab:  Solving for Ux, Initial residual = 0.00113217, Final residual = 4.60804e-05, No Iterations 1
DILUPBiCGStab:  Solving for Uy, Initial residual = 0.00167807, Final residual = 6.80106e-05, No Iterations 1
DILUPBiCGStab:  Solving for Uz, Initial residual = 0.00207979, Final residual = 8.30855e-05, No Iterations 1
DILUPBiCGStab:  Solving for h, Initial residual = 0.00155606, Final residual = 7.85098e-05, No Iterations 1
Min/max T:296.605 380.373
GAMG:  Solving for p_rgh, Initial residual = 0.00456311, Final residual = 4.20715e-05, No Iterations 2
GAMG:  Solving for p_rgh, Initial residual = 0.000650706, Final residual = 4.22957e-06, No Iterations 3
GAMG:  Solving for p_rgh, Initial residual = 0.000122894, Final residual = 7.37983e-07, No Iterations 3
time step continuity errors : sum local = 4.34643e-06, global = 2.05144e-07, cumulative = 2.05144e-07
ExecutionTime = 12.2739 s  ClockTime = 25 s

volFieldValue volAvgFinTemperature write:
    volAverage() of T = 377.658

volFieldValue volAvgHeaterTemperature write:
    volAverage() of T = 392.797

surfaceFieldValue averageTempHeaterFinInterface write:
    areaAverage(heater_to_fins) of T = 380.33

Region: fluid Courant Number mean: 1326.21 max: 42063.2
Region: fins Diffusion Number mean: 126.447 max: 149517
Region: heater Diffusion Number mean: 72.17 max: 543.426
Time = 44s


Solving for solid region fins
GAMG:  Solving for e, Initial residual = 0.119182, Final residual = 0.00358456, No Iterations 1
Min/max T:376.249 382.309

Solving for solid region heater
GAMG:  Solving for e, Initial residual = 0.0533501, Final residual = 2.36199e-05, No Iterations 1
Min/max T:381.497 400.371

Solving for fluid region fluid
DILUPBiCGStab:  Solving for Ux, Initial residual = 0.00111095, Final residual = 4.51219e-05, No Iterations 1
DILUPBiCGStab:  Solving for Uy, Initial residual = 0.00163721, Final residual = 6.62615e-05, No Iterations 1
DILUPBiCGStab:  Solving for Uz, Initial residual = 0.0020166, Final residual = 8.05945e-05, No Iterations 1
DILUPBiCGStab:  Solving for h, Initial residual = 0.00151915, Final residual = 7.56141e-05, No Iterations 1
Min/max T:296.599 382.077
GAMG:  Solving for p_rgh, Initial residual = 0.00444411, Final residual = 3.98994e-05, No Iterations 2
GAMG:  Solving for p_rgh, Initial residual = 0.000641002, Final residual = 4.10818e-06, No Iterations 3
GAMG:  Solving for p_rgh, Initial residual = 0.000119435, Final residual = 7.07585e-07, No Iterations 3
time step continuity errors : sum local = 4.17116e-06, global = -1.94837e-08, cumulative = -1.94837e-08
ExecutionTime = 12.427 s  ClockTime = 25 s

volFieldValue volAvgFinTemperature write:
    volAverage() of T = 379.298

volFieldValue volAvgHeaterTemperature write:
    volAverage() of T = 394.495

surfaceFieldValue averageTempHeaterFinInterface write:
    areaAverage(heater_to_fins) of T = 382.032

Region: fluid Courant Number mean: 1326.13 max: 42101.5
Region: fins Diffusion Number mean: 126.447 max: 149517
Region: heater Diffusion Number mean: 72.17 max: 543.426
Time = 45s


Solving for solid region fins
GAMG:  Solving for e, Initial residual = 0.116324, Final residual = 0.00351325, No Iterations 1
Min/max T:377.85 384.002

Solving for solid region heater
GAMG:  Solving for e, Initial residual = 0.0529335, Final residual = 2.35216e-05, No Iterations 1
Min/max T:383.18 402.056

Solving for fluid region fluid
DILUPBiCGStab:  Solving for Ux, Initial residual = 0.00109007, Final residual = 4.41879e-05, No Iterations 1
DILUPBiCGStab:  Solving for Uy, Initial residual = 0.00159755, Final residual = 6.45811e-05, No Iterations 1
DILUPBiCGStab:  Solving for Uz, Initial residual = 0.00195584, Final residual = 7.81442e-05, No Iterations 1
DILUPBiCGStab:  Solving for h, Initial residual = 0.00148235, Final residual = 7.23001e-05, No Iterations 1
Min/max T:296.593 383.769
GAMG:  Solving for p_rgh, Initial residual = 0.00439255, Final residual = 3.90415e-05, No Iterations 2
GAMG:  Solving for p_rgh, Initial residual = 0.000625208, Final residual = 4.09271e-06, No Iterations 3
GAMG:  Solving for p_rgh, Initial residual = 0.000116822, Final residual = 7.02908e-07, No Iterations 3
[...]
DILUPBiCGStab:  Solving for Ux, Initial residual = 1.75477e-10, Final residual = 1.75477e-10, No Iterations 0
DILUPBiCGStab:  Solving for Uy, Initial residual = 1.11779e-09, Final residual = 1.11779e-09, No Iterations 0
DILUPBiCGStab:  Solving for Uz, Initial residual = 7.3819e-10, Final residual = 7.3819e-10, No Iterations 0
DILUPBiCGStab:  Solving for h, Initial residual = 0.000363237, Final residual = 1.2189e-05, No Iterations 1
Min/max T:295.752 608.084
GAMG:  Solving for p_rgh, Initial residual = 1.48094e-07, Final residual = 7.04875e-09, No Iterations 1
GAMG:  Solving for p_rgh, Initial residual = 1.23965e-07, Final residual = 7.24974e-09, No Iterations 1
GAMG:  Solving for p_rgh, Initial residual = 9.78486e-08, Final residual = 9.78486e-08, No Iterations 0
time step continuity errors : sum local = 6.21333e-07, global = -9.00347e-10, cumulative = -9.00347e-10
ExecutionTime = 393.477 s  ClockTime = 750 s

volFieldValue volAvgFinTemperature write:
    volAverage() of T = 596.326

volFieldValue volAvgHeaterTemperature write:
    volAverage() of T = 619.314

surfaceFieldValue averageTempHeaterFinInterface write:
    areaAverage(heater_to_fins) of T = 607.421

Region: fluid Courant Number mean: 1319.63 max: 39083.9
Region: fins Diffusion Number mean: 126.447 max: 149517
Region: heater Diffusion Number mean: 72.17 max: 543.426
Time = 1990s


Solving for solid region fins
GAMG:  Solving for e, Initial residual = 9.9467e-07, Final residual = 9.9467e-07, No Iterations 0
Min/max T:589.14 609.239

Solving for solid region heater
GAMG:  Solving for e, Initial residual = 4.93471e-07, Final residual = 4.93471e-07, No Iterations 0
Min/max T:604.711 625.224

Solving for fluid region fluid
DILUPBiCGStab:  Solving for Ux, Initial residual = 1.48979e-10, Final residual = 1.48979e-10, No Iterations 0
DILUPBiCGStab:  Solving for Uy, Initial residual = 8.35037e-10, Final residual = 8.35037e-10, No Iterations 0
DILUPBiCGStab:  Solving for Uz, Initial residual = 6.328e-10, Final residual = 6.328e-10, No Iterations 0
DILUPBiCGStab:  Solving for h, Initial residual = 0.000363237, Final residual = 1.2189e-05, No Iterations 1
Min/max T:295.752 608.084
GAMG:  Solving for p_rgh, Initial residual = 1.08483e-07, Final residual = 4.79491e-09, No Iterations 1
GAMG:  Solving for p_rgh, Initial residual = 8.2753e-08, Final residual = 8.2753e-08, No Iterations 0
GAMG:  Solving for p_rgh, Initial residual = 8.2753e-08, Final residual = 8.2753e-08, No Iterations 0
time step continuity errors : sum local = 5.25477e-07, global = -3.01737e-10, cumulative = -3.01737e-10
ExecutionTime = 393.547 s  ClockTime = 750 s

volFieldValue volAvgFinTemperature write:
    volAverage() of T = 596.326

volFieldValue volAvgHeaterTemperature write:
    volAverage() of T = 619.314

surfaceFieldValue averageTempHeaterFinInterface write:
    areaAverage(heater_to_fins) of T = 607.421

Region: fluid Courant Number mean: 1319.63 max: 39083.9
Region: fins Diffusion Number mean: 126.447 max: 149517
Region: heater Diffusion Number mean: 72.17 max: 543.426
Time = 1991s


Solving for solid region fins
GAMG:  Solving for e, Initial residual = 9.94671e-07, Final residual = 9.94671e-07, No Iterations 0
Min/max T:589.14 609.239

Solving for solid region heater
GAMG:  Solving for e, Initial residual = 4.93471e-07, Final residual = 4.93471e-07, No Iterations 0
Min/max T:604.711 625.224

Solving for fluid region fluid
DILUPBiCGStab:  Solving for Ux, Initial residual = 2.7512e-10, Final residual = 2.7512e-10, No Iterations 0
DILUPBiCGStab:  Solving for Uy, Initial residual = 1.618e-09, Final residual = 1.618e-09, No Iterations 0
DILUPBiCGStab:  Solving for Uz, Initial residual = 1.07e-09, Final residual = 1.07e-09, No Iterations 0
DILUPBiCGStab:  Solving for h, Initial residual = 0.000363237, Final residual = 1.21892e-05, No Iterations 1
Min/max T:295.752 608.084
GAMG:  Solving for p_rgh, Initial residual = 1.90834e-07, Final residual = 9.46452e-09, No Iterations 1
GAMG:  Solving for p_rgh, Initial residual = 1.73672e-07, Final residual = 1.11285e-08, No Iterations 1
GAMG:  Solving for p_rgh, Initial residual = 1.35879e-07, Final residual = 5.86362e-09, No Iterations 1
time step continuity errors : sum local = 3.72337e-08, global = -5.00074e-11, cumulative = -5.00074e-11
ExecutionTime = 393.622 s  ClockTime = 750 s

volFieldValue volAvgFinTemperature write:
    volAverage() of T = 596.326

volFieldValue volAvgHeaterTemperature write:
    volAverage() of T = 619.314

surfaceFieldValue averageTempHeaterFinInterface write:
    areaAverage(heater_to_fins) of T = 607.421

Region: fluid Courant Number mean: 1319.63 max: 39083.9
Region: fins Diffusion Number mean: 126.447 max: 149517
Region: heater Diffusion Number mean: 72.17 max: 543.426
Time = 1992s


Solving for solid region fins
GAMG:  Solving for e, Initial residual = 9.94666e-07, Final residual = 9.94666e-07, No Iterations 0
Min/max T:589.14 609.239

Solving for solid region heater
GAMG:  Solving for e, Initial residual = 4.93471e-07, Final residual = 4.93471e-07, No Iterations 0
Min/max T:604.711 625.224

Solving for fluid region fluid
DILUPBiCGStab:  Solving for Ux, Initial residual = 2.52168e-10, Final residual = 2.52168e-10, No Iterations 0
DILUPBiCGStab:  Solving for Uy, Initial residual = 1.7598e-09, Final residual = 1.7598e-09, No Iterations 0
DILUPBiCGStab:  Solving for Uz, Initial residual = 1.03957e-09, Final residual = 1.03957e-09, No Iterations 0
DILUPBiCGStab:  Solving for h, Initial residual = 0.000363237, Final residual = 1.21891e-05, No Iterations 1
Min/max T:295.752 608.084
GAMG:  Solving for p_rgh, Initial residual = 1.43374e-07, Final residual = 6.53484e-09, No Iterations 1
GAMG:  Solving for p_rgh, Initial residual = 1.27624e-07, Final residual = 7.25088e-09, No Iterations 1
GAMG:  Solving for p_rgh, Initial residual = 1.05389e-07, Final residual = 4.30439e-09, No Iterations 1
time step continuity errors : sum local = 2.73327e-08, global = 5.67875e-10, cumulative = 5.67875e-10
ExecutionTime = 393.724 s  ClockTime = 750 s

volFieldValue volAvgFinTemperature write:
    volAverage() of T = 596.326

volFieldValue volAvgHeaterTemperature write:
    volAverage() of T = 619.314

surfaceFieldValue averageTempHeaterFinInterface write:
    areaAverage(heater_to_fins) of T = 607.421

Region: fluid Courant Number mean: 1319.63 max: 39083.9
Region: fins Diffusion Number mean: 126.447 max: 149517
Region: heater Diffusion Number mean: 72.17 max: 543.426
Time = 1993s


Solving for solid region fins
GAMG:  Solving for e, Initial residual = 9.94663e-07, Final residual = 9.94663e-07, No Iterations 0
Min/max T:589.14 609.239

Solving for solid region heater
GAMG:  Solving for e, Initial residual = 4.93471e-07, Final residual = 4.93471e-07, No Iterations 0
Min/max T:604.711 625.224

Solving for fluid region fluid
DILUPBiCGStab:  Solving for Ux, Initial residual = 2.06092e-10, Final residual = 2.06092e-10, No Iterations 0
DILUPBiCGStab:  Solving for Uy, Initial residual = 1.05398e-09, Final residual = 1.05398e-09, No Iterations 0
DILUPBiCGStab:  Solving for Uz, Initial residual = 7.45432e-10, Final residual = 7.45432e-10, No Iterations 0
DILUPBiCGStab:  Solving for h, Initial residual = 0.000363237, Final residual = 1.21891e-05, No Iterations 1
Min/max T:295.752 608.084
GAMG:  Solving for p_rgh, Initial residual = 7.73821e-08, Final residual = 7.73821e-08, No Iterations 0
GAMG:  Solving for p_rgh, Initial residual = 7.73821e-08, Final residual = 7.73821e-08, No Iterations 0
GAMG:  Solving for p_rgh, Initial residual = 7.73821e-08, Final residual = 7.73821e-08, No Iterations 0
time step continuity errors : sum local = 4.91372e-07, global = 1.16694e-09, cumulative = 1.16694e-09
ExecutionTime = 393.818 s  ClockTime = 750 s

volFieldValue volAvgFinTemperature write:
    volAverage() of T = 596.326

volFieldValue volAvgHeaterTemperature write:
    volAverage() of T = 619.314

surfaceFieldValue averageTempHeaterFinInterface write:
    areaAverage(heater_to_fins) of T = 607.421

Region: fluid Courant Number mean: 1319.63 max: 39083.9
Region: fins Diffusion Number mean: 126.447 max: 149517
Region: heater Diffusion Number mean: 72.17 max: 543.426
Time = 1994s


Solving for solid region fins
GAMG:  Solving for e, Initial residual = 9.94664e-07, Final residual = 9.94664e-07, No Iterations 0
Min/max T:589.14 609.239

Solving for solid region heater
GAMG:  Solving for e, Initial residual = 4.93471e-07, Final residual = 4.93471e-07, No Iterations 0
Min/max T:604.711 625.224

Solving for fluid region fluid
DILUPBiCGStab:  Solving for Ux, Initial residual = 1.88915e-10, Final residual = 1.88915e-10, No Iterations 0
DILUPBiCGStab:  Solving for Uy, Initial residual = 9.04992e-10, Final residual = 9.04992e-10, No Iterations 0
DILUPBiCGStab:  Solving for Uz, Initial residual = 6.50595e-10, Final residual = 6.50595e-10, No Iterations 0
DILUPBiCGStab:  Solving for h, Initial residual = 0.000363237, Final residual = 1.21892e-05, No Iterations 1
Min/max T:295.752 608.084
GAMG:  Solving for p_rgh, Initial residual = 1.15986e-07, Final residual = 5.00466e-09, No Iterations 1
GAMG:  Solving for p_rgh, Initial residual = 1.01453e-07, Final residual = 5.55702e-09, No Iterations 1
GAMG:  Solving for p_rgh, Initial residual = 8.41715e-08, Final residual = 8.41715e-08, No Iterations 0
time step continuity errors : sum local = 5.34484e-07, global = 1.51828e-09, cumulative = 1.51828e-09
ExecutionTime = 393.927 s  ClockTime = 751 s

volFieldValue volAvgFinTemperature write:
    volAverage() of T = 596.326

volFieldValue volAvgHeaterTemperature write:
    volAverage() of T = 619.314

surfaceFieldValue averageTempHeaterFinInterface write:
    areaAverage(heater_to_fins) of T = 607.421

Region: fluid Courant Number mean: 1319.63 max: 39083.9
Region: fins Diffusion Number mean: 126.447 max: 149517
Region: heater Diffusion Number mean: 72.17 max: 543.426
Time = 1995s


Solving for solid region fins
GAMG:  Solving for e, Initial residual = 9.94661e-07, Final residual = 9.94661e-07, No Iterations 0
Min/max T:589.14 609.239

Solving for solid region heater
GAMG:  Solving for e, Initial residual = 4.93471e-07, Final residual = 4.93471e-07, No Iterations 0
Min/max T:604.711 625.224

Solving for fluid region fluid
DILUPBiCGStab:  Solving for Ux, Initial residual = 1.45724e-10, Final residual = 1.45724e-10, No Iterations 0
DILUPBiCGStab:  Solving for Uy, Initial residual = 7.59062e-10, Final residual = 7.59062e-10, No Iterations 0
DILUPBiCGStab:  Solving for Uz, Initial residual = 6.02047e-10, Final residual = 6.02047e-10, No Iterations 0
DILUPBiCGStab:  Solving for h, Initial residual = 0.000363237, Final residual = 1.21892e-05, No Iterations 1
Min/max T:295.752 608.084
GAMG:  Solving for p_rgh, Initial residual = 9.20754e-08, Final residual = 9.20754e-08, No Iterations 0
GAMG:  Solving for p_rgh, Initial residual = 9.20754e-08, Final residual = 9.20754e-08, No Iterations 0
GAMG:  Solving for p_rgh, Initial residual = 9.20754e-08, Final residual = 9.20754e-08, No Iterations 0
time step continuity errors : sum local = 5.84673e-07, global = 1.88968e-09, cumulative = 1.88968e-09
ExecutionTime = 394.013 s  ClockTime = 751 s

volFieldValue volAvgFinTemperature write:
    volAverage() of T = 596.326

volFieldValue volAvgHeaterTemperature write:
    volAverage() of T = 619.314

surfaceFieldValue averageTempHeaterFinInterface write:
    areaAverage(heater_to_fins) of T = 607.421

Region: fluid Courant Number mean: 1319.63 max: 39083.9
Region: fins Diffusion Number mean: 126.447 max: 149517
Region: heater Diffusion Number mean: 72.17 max: 543.426
Time = 1996s


Solving for solid region fins
GAMG:  Solving for e, Initial residual = 9.94661e-07, Final residual = 9.94661e-07, No Iterations 0
Min/max T:589.14 609.239

Solving for solid region heater
GAMG:  Solving for e, Initial residual = 4.93471e-07, Final residual = 4.93471e-07, No Iterations 0
Min/max T:604.711 625.224

Solving for fluid region fluid
DILUPBiCGStab:  Solving for Ux, Initial residual = 1.35387e-10, Final residual = 1.35387e-10, No Iterations 0
DILUPBiCGStab:  Solving for Uy, Initial residual = 6.88648e-10, Final residual = 6.88648e-10, No Iterations 0
DILUPBiCGStab:  Solving for Uz, Initial residual = 5.60877e-10, Final residual = 5.60877e-10, No Iterations 0
DILUPBiCGStab:  Solving for h, Initial residual = 0.000363236, Final residual = 1.21892e-05, No Iterations 1
Min/max T:295.752 608.084
GAMG:  Solving for p_rgh, Initial residual = 1.08581e-07, Final residual = 6.30547e-09, No Iterations 1
GAMG:  Solving for p_rgh, Initial residual = 7.49387e-08, Final residual = 7.49387e-08, No Iterations 0
GAMG:  Solving for p_rgh, Initial residual = 7.49387e-08, Final residual = 7.49387e-08, No Iterations 0
time step continuity errors : sum local = 4.75856e-07, global = 1.96073e-09, cumulative = 1.96073e-09
ExecutionTime = 394.078 s  ClockTime = 751 s

volFieldValue volAvgFinTemperature write:
    volAverage() of T = 596.326

volFieldValue volAvgHeaterTemperature write:
    volAverage() of T = 619.314

surfaceFieldValue averageTempHeaterFinInterface write:
    areaAverage(heater_to_fins) of T = 607.421

Region: fluid Courant Number mean: 1319.63 max: 39083.9
Region: fins Diffusion Number mean: 126.447 max: 149517
Region: heater Diffusion Number mean: 72.17 max: 543.426
Time = 1997s


Solving for solid region fins
GAMG:  Solving for e, Initial residual = 9.9466e-07, Final residual = 9.9466e-07, No Iterations 0
Min/max T:589.14 609.239

Solving for solid region heater
GAMG:  Solving for e, Initial residual = 4.93471e-07, Final residual = 4.93471e-07, No Iterations 0
Min/max T:604.711 625.224

Solving for fluid region fluid
DILUPBiCGStab:  Solving for Ux, Initial residual = 2.0226e-10, Final residual = 2.0226e-10, No Iterations 0
DILUPBiCGStab:  Solving for Uy, Initial residual = 1.53752e-09, Final residual = 1.53752e-09, No Iterations 0
DILUPBiCGStab:  Solving for Uz, Initial residual = 9.64332e-10, Final residual = 9.64332e-10, No Iterations 0
DILUPBiCGStab:  Solving for h, Initial residual = 0.000363237, Final residual = 1.2189e-05, No Iterations 1
Min/max T:295.752 608.084
GAMG:  Solving for p_rgh, Initial residual = 1.80702e-07, Final residual = 8.09507e-09, No Iterations 1
GAMG:  Solving for p_rgh, Initial residual = 1.57712e-07, Final residual = 9.91995e-09, No Iterations 1
GAMG:  Solving for p_rgh, Initial residual = 1.22743e-07, Final residual = 5.38739e-09, No Iterations 1
time step continuity errors : sum local = 3.42097e-08, global = 1.58953e-09, cumulative = 1.58953e-09
ExecutionTime = 394.156 s  ClockTime = 751 s

volFieldValue volAvgFinTemperature write:
    volAverage() of T = 596.326

volFieldValue volAvgHeaterTemperature write:
    volAverage() of T = 619.314

surfaceFieldValue averageTempHeaterFinInterface write:
    areaAverage(heater_to_fins) of T = 607.421

Region: fluid Courant Number mean: 1319.63 max: 39083.9
Region: fins Diffusion Number mean: 126.447 max: 149517
Region: heater Diffusion Number mean: 72.17 max: 543.426
Time = 1998s


Solving for solid region fins
GAMG:  Solving for e, Initial residual = 9.94667e-07, Final residual = 9.94667e-07, No Iterations 0
Min/max T:589.14 609.239

Solving for solid region heater
GAMG:  Solving for e, Initial residual = 4.93471e-07, Final residual = 4.93471e-07, No Iterations 0
Min/max T:604.711 625.224

Solving for fluid region fluid
DILUPBiCGStab:  Solving for Ux, Initial residual = 2.52804e-10, Final residual = 2.52804e-10, No Iterations 0
DILUPBiCGStab:  Solving for Uy, Initial residual = 1.66834e-09, Final residual = 1.66834e-09, No Iterations 0
DILUPBiCGStab:  Solving for Uz, Initial residual = 1.04436e-09, Final residual = 1.04436e-09, No Iterations 0
DILUPBiCGStab:  Solving for h, Initial residual = 0.000363237, Final residual = 1.21892e-05, No Iterations 1
Min/max T:295.752 608.084
GAMG:  Solving for p_rgh, Initial residual = 1.34734e-07, Final residual = 5.78398e-09, No Iterations 1
GAMG:  Solving for p_rgh, Initial residual = 1.17733e-07, Final residual = 6.7782e-09, No Iterations 1
GAMG:  Solving for p_rgh, Initial residual = 9.57238e-08, Final residual = 9.57238e-08, No Iterations 0
time step continuity errors : sum local = 6.07841e-07, global = 9.1621e-10, cumulative = 9.1621e-10
ExecutionTime = 394.232 s  ClockTime = 751 s

volFieldValue volAvgFinTemperature write:
    volAverage() of T = 596.326

volFieldValue volAvgHeaterTemperature write:
    volAverage() of T = 619.314

surfaceFieldValue averageTempHeaterFinInterface write:
    areaAverage(heater_to_fins) of T = 607.421

Region: fluid Courant Number mean: 1319.63 max: 39083.9
Region: fins Diffusion Number mean: 126.447 max: 149517
Region: heater Diffusion Number mean: 72.17 max: 543.426
Time = 1999s


Solving for solid region fins
GAMG:  Solving for e, Initial residual = 9.94671e-07, Final residual = 9.94671e-07, No Iterations 0
Min/max T:589.14 609.239

Solving for solid region heater
GAMG:  Solving for e, Initial residual = 4.93471e-07, Final residual = 4.93471e-07, No Iterations 0
Min/max T:604.711 625.224

Solving for fluid region fluid
DILUPBiCGStab:  Solving for Ux, Initial residual = 2.09655e-10, Final residual = 2.09655e-10, No Iterations 0
DILUPBiCGStab:  Solving for Uy, Initial residual = 1.18105e-09, Final residual = 1.18105e-09, No Iterations 0
DILUPBiCGStab:  Solving for Uz, Initial residual = 8.23774e-10, Final residual = 8.23774e-10, No Iterations 0
DILUPBiCGStab:  Solving for h, Initial residual = 0.000363236, Final residual = 1.21892e-05, No Iterations 1
Min/max T:295.752 608.084
GAMG:  Solving for p_rgh, Initial residual = 1.4949e-07, Final residual = 7.02604e-09, No Iterations 1
GAMG:  Solving for p_rgh, Initial residual = 1.26175e-07, Final residual = 7.29408e-09, No Iterations 1
GAMG:  Solving for p_rgh, Initial residual = 9.99129e-08, Final residual = 9.99129e-08, No Iterations 0
time step continuity errors : sum local = 6.34441e-07, global = 4.15621e-10, cumulative = 4.15621e-10
ExecutionTime = 394.299 s  ClockTime = 752 s

volFieldValue volAvgFinTemperature write:
    volAverage() of T = 596.326

volFieldValue volAvgHeaterTemperature write:
    volAverage() of T = 619.314

surfaceFieldValue averageTempHeaterFinInterface write:
    areaAverage(heater_to_fins) of T = 607.421

Region: fluid Courant Number mean: 1319.63 max: 39083.9
Region: fins Diffusion Number mean: 126.447 max: 149517
Region: heater Diffusion Number mean: 72.17 max: 543.426
Time = 2000s


Solving for solid region fins
GAMG:  Solving for e, Initial residual = 9.94669e-07, Final residual = 9.94669e-07, No Iterations 0
Min/max T:589.14 609.239

Solving for solid region heater
GAMG:  Solving for e, Initial residual = 4.93471e-07, Final residual = 4.93471e-07, No Iterations 0
Min/max T:604.711 625.224

Solving for fluid region fluid
DILUPBiCGStab:  Solving for Ux, Initial residual = 1.75615e-10, Final residual = 1.75615e-10, No Iterations 0
DILUPBiCGStab:  Solving for Uy, Initial residual = 8.66433e-10, Final residual = 8.66433e-10, No Iterations 0
DILUPBiCGStab:  Solving for Uz, Initial residual = 6.93509e-10, Final residual = 6.93509e-10, No Iterations 0
DILUPBiCGStab:  Solving for h, Initial residual = 0.000363236, Final residual = 1.21892e-05, No Iterations 1
Min/max T:295.752 608.084
GAMG:  Solving for p_rgh, Initial residual = 1.10979e-07, Final residual = 4.85429e-09, No Iterations 1
GAMG:  Solving for p_rgh, Initial residual = 8.46926e-08, Final residual = 8.46926e-08, No Iterations 0
GAMG:  Solving for p_rgh, Initial residual = 8.46926e-08, Final residual = 8.46926e-08, No Iterations 0
time step continuity errors : sum local = 5.37793e-07, global = -2.75439e-10, cumulative = -2.75439e-10
ExecutionTime = 394.447 s  ClockTime = 752 s

volFieldValue volAvgFinTemperature write:
    volAverage() of T = 596.326

volFieldValue volAvgHeaterTemperature write:
    volAverage() of T = 619.314

surfaceFieldValue averageTempHeaterFinInterface write:
    areaAverage(heater_to_fins) of T = 607.421

End

